pglib_opf_case10192_epigrids/dapi/pglib_opf_case10192_epigrids_10regions_dapi.m
% -------------------------------------------------------------------------
% Partitioned MATPOWER Case File
% Copyright (c) 2025 Milad Hasanzadeh
% Generated on: 2026-06-14
% This file contains partitioned data for 10 regions


% -------------------- mpc_regionR1 --------------------

mpc_regionR1.version = '2';
mpc_regionR1.baseMVA = 100.0000;
mpc_regionR1.bus = [
%	bus_i       type        Pd          Qd          Gs          Bs          area        Vm          Va          baseKV      zone        Vmax        Vmin        
	 1	 2	 0	 0	 0	 0	 17	 1	 0	 345	 1	 1.1	 0.9;
	 2	 2	 0	 0	 0	 0	 17	 1	 0	 345	 1	 1.1	 0.9;
	 3	 2	 0	 0	 0	 0	 17	 1	 0	 345	 1	 1.1	 0.9;
	 4	 2	 0	 0	 0	 0	 17	 1	 0	 345	 1	 1.1	 0.9;
	 5	 2	 0	 0	 0	 0	 17	 1	 0	 345	 1	 1.1	 0.9;
	 6	 2	 0	 0	 0	 0	 17	 1	 0	 138	 1	 1.1	 0.9;
	 7	 1	 0	 0	 0	 0	 17	 1	 0	 345	 1	 1.1	 0.9;
	 8	 1	 0	 0	 0	 0	 17	 1	 0	 345	 1	 1.1	 0.9;
	 9	 1	 0	 0	 0	 0	 17	 1	 0	 345	 1	 1.1	 0.9;
	 10	 1	 0	 0	 0	 0	 17	 1	 0	 138	 1	 1.1	 0.9;
	 11	 2	 0	 0	 0	 0	 17	 1	 0	 345	 1	 1.1	 0.9;
	 12	 2	 0	 0	 0	 0	 17	 1	 0	 345	 1	 1.1	 0.9;
	 13	 2	 0	 0	 0	 0	 17	 1	 0	 138	 1	 1.1	 0.9;
	 14	 1	 0	 0	 0	 0	 17	 1	 0	 138	 1	 1.1	 0.9;
	 15	 2	 0	 0	 0	 0	 17	 1	 0	 69	 1	 1.1	 0.9;
	 16	 2	 0	 0	 0	 0	 17	 1	 0	 69	 1	 1.1	 0.9;
	 17	 2	 0	 0	 0	 0	 17	 1	 0	 138	 1	 1.1	 0.9;
	 18	 1	 0	 0	 0	 0	 17	 1	 0	 138	 1	 1.1	 0.9;
	 19	 2	 0	 0	 0	 0	 17	 1	 0	 69	 1	 1.1	 0.9;
	 20	 2	 0	 0	 0	 0	 17	 1	 0	 138	 1	 1.1	 0.9;
	 21	 1	 0	 0	 0	 0	 17	 1	 0	 138	 1	 1.1	 0.9;
	 22	 1	 0	 0	 0	 0	 17	 1	 0	 138	 1	 1.1	 0.9;
	 23	 1	 0	 0	 0	 0	 17	 1	 0	 345	 1	 1.1	 0.9;
	 24	 1	 5.79	 3.62	 0	 0	 17	 1	 0	 69	 1	 1.1	 0.9;
	 25	 1	 6.3	 2.78	 0	 0	 17	 1	 0	 69	 1	 1.1	 0.9;
	 26	 1	 0	 0	 0	 0	 17	 1	 0	 138	 1	 1.1	 0.9;
	 27	 1	 4.79	 2.43	 0	 0	 17	 1	 0	 138	 1	 1.1	 0.9;
	 28	 1	 0	 0	 0	 0	 17	 1	 0	 345	 1	 1.1	 0.9;
	 29	 1	 1.71	 1.01	 0	 0	 17	 1	 0	 69	 1	 1.1	 0.9;
	 30	 1	 0	 0	 0	 0	 17	 1	 0	 138	 1	 1.1	 0.9;
	 31	 1	 0	 0	 0	 0	 17	 1	 0	 138	 1	 1.1	 0.9;
	 32	 1	 0	 0	 0	 0	 17	 1	 0	 138	 1	 1.1	 0.9;
	 33	 1	 2.79	 1.48	 0	 0	 17	 1	 0	 69	 1	 1.1	 0.9;
	 34	 1	 0	 0	 0	 0	 17	 1	 0	 138	 1	 1.1	 0.9;
	 35	 1	 0	 0	 0	 0	 17	 1	 0	 345	 1	 1.1	 0.9;
	 36	 1	 11.36	 4.48	 0	 0	 17	 1	 0	 69	 1	 1.1	 0.9;
	 37	 1	 12.38	 6.67	 0	 0	 17	 1	 0	 138	 1	 1.1	 0.9;
	 38	 1	 0	 0	 0	 0	 17	 1	 0	 138	 1	 1.1	 0.9;
	 39	 1	 0	 0	 0	 0	 17	 1	 0	 138	 1	 1.1	 0.9;
	 40	 1	 0	 0	 0	 0	 17	 1	 0	 138	 1	 1.1	 0.9;
	 41	 1	 0	 0	 0	 0	 17	 1	 0	 138	 1	 1.1	 0.9;
	 42	 1	 4.94	 2.94	 0	 0	 17	 1	 0	 138	 1	 1.1	 0.9;
	 43	 1	 0	 0	 0	 0	 17	 1	 0	 345	 1	 1.1	 0.9;
	 44	 1	 4.14	 1.97	 0	 0	 17	 1	 0	 69	 1	 1.1	 0.9;
	 45	 1	 0.85	 0.46	 0	 0	 17	 1	 0	 69	 1	 1.1	 0.9;
	 46	 1	 6.58	 3.27	 0	 0	 17	 1	 0	 69	 1	 1.1	 0.9;
	 47	 1	 4.89	 2.42	 0	 0	 17	 1	 0	 69	 1	 1.1	 0.9;
	 48	 1	 12.75	 5.61	 0	 0	 17	 1	 0	 69	 1	 1.1	 0.9;
	 49	 1	 5.62	 2.43	 0	 0	 17	 1	 0	 69	 1	 1.1	 0.9;
	 50	 1	 3.02	 1.57	 0	 0	 17	 1	 0	 138	 1	 1.1	 0.9;
	 51	 1	 6.6	 3.3	 0	 0	 17	 1	 0	 69	 1	 1.1	 0.9;
	 52	 1	 8.61	 5.02	 0	 0	 17	 1	 0	 69	 1	 1.1	 0.9;
	 53	 1	 3.34	 1.61	 0	 0	 17	 1	 0	 69	 1	 1.1	 0.9;
	 54	 1	 2.09	 0.41	 0	 0	 17	 1	 0	 69	 1	 1.1	 0.9;
	 55	 1	 12.63	 6.29	 0	 0	 17	 1	 0	 69	 1	 1.1	 0.9;
	 56	 1	 0	 0	 0	 0	 17	 1	 0	 138	 1	 1.1	 0.9;
	 57	 1	 6.77	 1.32	 0	 0	 17	 1	 0	 69	 1	 1.1	 0.9;
	 58	 1	 9.8	 1.91	 0	 0	 17	 1	 0	 138	 1	 1.1	 0.9;
	 59	 1	 0	 0	 0	 0	 17	 1	 0	 138	 1	 1.1	 0.9;
	 60	 1	 10.44	 1.97	 0	 0	 17	 1	 0	 69	 1	 1.1	 0.9;
	 61	 1	 0	 0	 0	 0	 17	 1	 0	 138	 1	 1.1	 0.9;
	 62	 1	 3.63	 0.7	 0	 0	 17	 1	 0	 69	 1	 1.1	 0.9;
	 63	 1	 0	 0	 0	 0	 17	 1	 0	 138	 1	 1.1	 0.9;
	 64	 1	 3.43	 0.66	 0	 0	 17	 1	 0	 69	 1	 1.1	 0.9;
	 65	 1	 4.79	 0.92	 0	 0	 17	 1	 0	 69	 1	 1.1	 0.9;
	 66	 1	 18.37	 3.54	 0	 0	 17	 1	 0	 69	 1	 1.1	 0.9;
	 67	 1	 2.98	 0.58	 0	 0	 17	 1	 0	 69	 1	 1.1	 0.9;
	 68	 1	 5.07	 0.98	 0	 0	 17	 1	 0	 69	 1	 1.1	 0.9;
	 69	 1	 0	 0	 0	 0	 17	 1	 0	 138	 1	 1.1	 0.9;
	 70	 1	 0	 0	 0	 0	 17	 1	 0	 138	 1	 1.1	 0.9;
	 71	 1	 1.93	 0.37	 0	 0	 17	 1	 0	 69	 1	 1.1	 0.9;
	 72	 1	 11.2	 2.17	 0	 0	 17	 1	 0	 69	 1	 1.1	 0.9;
	 73	 1	 0	 0	 0	 0	 17	 1	 0	 138	 1	 1.1	 0.9;
	 74	 1	 8.64	 1.67	 0	 0	 17	 1	 0	 69	 1	 1.1	 0.9;
	 75	 1	 3.77	 0.73	 0	 0	 17	 1	 0	 69	 1	 1.1	 0.9;
	 76	 1	 3.2	 0.62	 0	 0	 17	 1	 0	 69	 1	 1.1	 0.9;
	 77	 1	 8.58	 1.66	 0	 0	 17	 1	 0	 69	 1	 1.1	 0.9;
	 78	 1	 7.27	 1.4	 0	 0	 17	 1	 0	 69	 1	 1.1	 0.9;
	 79	 1	 4.85	 0.93	 0	 0	 17	 1	 0	 69	 1	 1.1	 0.9;
	 80	 1	 4.91	 0.95	 0	 0	 17	 1	 0	 69	 1	 1.1	 0.9;
	 81	 1	 3.94	 0.75	 0	 0	 17	 1	 0	 69	 1	 1.1	 0.9;
	 82	 1	 3.66	 0.71	 0	 0	 17	 1	 0	 69	 1	 1.1	 0.9;
	 83	 1	 2.4	 0.46	 0	 0	 17	 1	 0	 69	 1	 1.1	 0.9;
	 84	 1	 2.97	 1.45	 0	 0	 17	 1	 0	 138	 1	 1.1	 0.9;
	 85	 1	 0	 0	 0	 0	 17	 1	 0	 345	 1	 1.1	 0.9;
	 86	 1	 4.39	 0.85	 0	 0	 17	 1	 0	 69	 1	 1.1	 0.9;
	 87	 1	 9.24	 1.83	 0	 0	 17	 1	 0	 138	 1	 1.1	 0.9;
	 88	 1	 9.13	 1.77	 0	 0	 17	 1	 0	 69	 1	 1.1	 0.9;
	 89	 1	 2.3	 0.45	 0	 0	 17	 1	 0	 69	 1	 1.1	 0.9;
	 90	 1	 8.39	 1.67	 0	 0	 17	 1	 0	 69	 1	 1.1	 0.9;
	 91	 1	 5.44	 1.04	 0	 0	 17	 1	 0	 69	 1	 1.1	 0.9;
	 92	 1	 1.32	 0.26	 0	 0	 17	 1	 0	 69	 1	 1.1	 0.9;
	 93	 1	 3.1	 0.59	 0	 0	 17	 1	 0	 69	 1	 1.1	 0.9;
	 94	 1	 12.02	 2.32	 0	 0	 17	 1	 0	 69	 1	 1.1	 0.9;
	 95	 1	 0	 0	 0	 0	 17	 1	 0	 138	 1	 1.1	 0.9;
	 96	 1	 9.52	 1.84	 0	 0	 17	 1	 0	 138	 1	 1.1	 0.9;
	 97	 1	 10.26	 1.98	 0	 0	 17	 1	 0	 138	 1	 1.1	 0.9;
	 98	 1	 4.26	 0.82	 0	 0	 17	 1	 0	 69	 1	 1.1	 0.9;
	 99	 1	 41.08	 7.94	 0	 0	 17	 1	 0	 138	 1	 1.1	 0.9;
	 100	 1	 0	 0	 0	 0	 17	 1	 0	 138	 1	 1.1	 0.9;
	 101	 1	 5.92	 2.61	 0	 0	 17	 1	 0	 138	 1	 1.1	 0.9;
	 102	 1	 4.86	 2.69	 0	 0	 17	 1	 0	 69	 1	 1.1	 0.9;
	 103	 1	 2.58	 1.7	 0	 0	 17	 1	 0	 138	 1	 1.1	 0.9;
	 104	 1	 0	 0	 0	 0	 17	 1	 0	 138	 1	 1.1	 0.9;
	 105	 1	 0	 0	 0	 0	 17	 1	 0	 138	 1	 1.1	 0.9;
	 106	 1	 2.29	 1.11	 0	 0	 17	 1	 0	 69	 1	 1.1	 0.9;
	 107	 1	 6.68	 3.15	 0	 0	 17	 1	 0	 69	 1	 1.1	 0.9;
	 108	 1	 4.88	 2.64	 0	 0	 17	 1	 0	 138	 1	 1.1	 0.9;
	 109	 1	 0	 0	 0	 0	 17	 1	 0	 138	 1	 1.1	 0.9;
	 110	 1	 5.34	 2.4	 0	 0	 17	 1	 0	 69	 1	 1.1	 0.9;
	 111	 1	 6.41	 2.87	 0	 0	 17	 1	 0	 69	 1	 1.1	 0.9;
	 112	 1	 0	 0	 0	 0	 17	 1	 0	 138	 1	 1.1	 0.9;
	 113	 1	 2.03	 1.34	 0	 0	 17	 1	 0	 138	 1	 1.1	 0.9;
	 114	 1	 2.96	 1.75	 0	 0	 17	 1	 0	 138	 1	 1.1	 0.9;
	 115	 1	 0	 0	 0	 0	 17	 1	 0	 345	 1	 1.1	 0.9;
	 116	 1	 4.64	 2.37	 0	 0	 17	 1	 0	 138	 1	 1.1	 0.9;
	 117	 1	 5.5	 2.98	 0	 0	 17	 1	 0	 69	 1	 1.1	 0.9;
	 118	 1	 3.34	 1.71	 0	 0	 17	 1	 0	 138	 1	 1.1	 0.9;
	 119	 1	 8.18	 3.43	 0	 0	 17	 1	 0	 138	 1	 1.1	 0.9;
	 120	 1	 2.45	 1.47	 0	 0	 17	 1	 0	 138	 1	 1.1	 0.9;
	 121	 1	 0	 0	 0	 0	 17	 1	 0	 138	 1	 1.1	 0.9;
	 122	 1	 0	 0	 0	 0	 17	 1	 0	 138	 1	 1.1	 0.9;
	 123	 1	 2.06	 1.1	 0	 0	 17	 1	 0	 69	 1	 1.1	 0.9;
	 124	 1	 1.49	 0.97	 0	 0	 17	 1	 0	 69	 1	 1.1	 0.9;
	 125	 1	 4.3	 2.44	 0	 0	 17	 1	 0	 69	 1	 1.1	 0.9;
	 126	 1	 2.6	 1.41	 0	 0	 17	 1	 0	 69	 1	 1.1	 0.9;
	 127	 1	 4.42	 2.7	 0	 0	 17	 1	 0	 69	 1	 1.1	 0.9;
	 128	 1	 1.75	 1.02	 0	 0	 17	 1	 0	 69	 1	 1.1	 0.9;
	 129	 1	 0	 0	 0	 0	 17	 1	 0	 138	 1	 1.1	 0.9;
	 130	 1	 13.61	 6.56	 0	 0	 17	 1	 0	 69	 1	 1.1	 0.9;
	 131	 1	 10.8	 5.31	 0	 0	 17	 1	 0	 69	 1	 1.1	 0.9;
	 132	 1	 3.47	 1.71	 0	 0	 17	 1	 0	 69	 1	 1.1	 0.9;
	 133	 1	 14.61	 6.91	 0	 0	 17	 1	 0	 69	 1	 1.1	 0.9;
	 134	 1	 2.28	 1.43	 0	 0	 17	 1	 0	 69	 1	 1.1	 0.9;
	 135	 1	 5.43	 2.82	 0	 0	 17	 1	 0	 69	 1	 1.1	 0.9;
	 136	 1	 0	 0	 0	 0	 17	 1	 0	 138	 1	 1.1	 0.9;
	 137	 1	 4.02	 2.02	 0	 0	 17	 1	 0	 69	 1	 1.1	 0.9;
	 138	 1	 5.56	 3.02	 0	 0	 17	 1	 0	 138	 1	 1.1	 0.9;
	 139	 1	 22.74	 7.08	 0	 0	 17	 1	 0	 138	 1	 1.1	 0.9;
	 140	 1	 4.03	 0.78	 0	 0	 17	 1	 0	 69	 1	 1.1	 0.9;
	 141	 1	 0	 0	 0	 0	 17	 1	 0	 138	 1	 1.1	 0.9;
	 142	 1	 0	 0	 0	 0	 17	 1	 0	 138	 1	 1.1	 0.9;
	 143	 1	 7.44	 3.11	 0	 0	 17	 1	 0	 69	 1	 1.1	 0.9;
	 144	 1	 3.16	 1.58	 0	 0	 17	 1	 0	 69	 1	 1.1	 0.9;
	 145	 1	 5.54	 2.82	 0	 0	 17	 1	 0	 138	 1	 1.1	 0.9;
	 146	 1	 1.98	 1.27	 0	 0	 17	 1	 0	 69	 1	 1.1	 0.9;
	 147	 1	 6.45	 3.54	 0	 0	 17	 1	 0	 69	 1	 1.1	 0.9;
	 148	 1	 3	 1.35	 0	 0	 17	 1	 0	 69	 1	 1.1	 0.9;
	 149	 1	 8.13	 3.88	 0	 0	 17	 1	 0	 69	 1	 1.1	 0.9;
	 150	 1	 0	 0	 0	 0	 17	 1	 0	 138	 1	 1.1	 0.9;
	 151	 1	 3.06	 1.98	 0	 0	 17	 1	 0	 69	 1	 1.1	 0.9;
	 152	 1	 2.76	 1.68	 0	 0	 17	 1	 0	 69	 1	 1.1	 0.9;
	 153	 1	 16.88	 8.47	 0	 0	 17	 1	 0	 138	 1	 1.1	 0.9;
	 154	 1	 0	 0	 0	 0	 17	 1	 0	 138	 1	 1.1	 0.9;
	 155	 1	 1.59	 1.1	 0	 0	 17	 1	 0	 138	 1	 1.1	 0.9;
	 156	 1	 0	 0	 0	 0	 17	 1	 0	 138	 1	 1.1	 0.9;
	 157	 1	 5.81	 2.4	 0	 0	 17	 1	 0	 69	 1	 1.1	 0.9;
	 158	 1	 0	 0	 0	 0	 17	 1	 0	 138	 1	 1.1	 0.9;
	 159	 1	 4.28	 2.67	 0	 0	 17	 1	 0	 138	 1	 1.1	 0.9;
	 160	 1	 0	 0	 0	 0	 17	 1	 0	 138	 1	 1.1	 0.9;
	 161	 1	 7.34	 3.53	 0	 0	 17	 1	 0	 138	 1	 1.1	 0.9;
	 162	 1	 18.4	 6.91	 0	 0	 17	 1	 0	 69	 1	 1.1	 0.9;
	 163	 1	 1.64	 1.02	 0	 0	 17	 1	 0	 69	 1	 1.1	 0.9;
	 164	 1	 2.11	 1.19	 0	 0	 17	 1	 0	 69	 1	 1.1	 0.9;
	 165	 1	 1.89	 1.03	 0	 0	 17	 1	 0	 69	 1	 1.1	 0.9;
	 166	 1	 4.03	 2.19	 0	 0	 17	 1	 0	 69	 1	 1.1	 0.9;
	 167	 1	 2.55	 1.41	 0	 0	 17	 1	 0	 69	 1	 1.1	 0.9;
	 168	 1	 2.03	 1.28	 0	 0	 17	 1	 0	 69	 1	 1.1	 0.9;
	 169	 1	 2.8	 1.66	 0	 0	 17	 1	 0	 69	 1	 1.1	 0.9;
	 170	 1	 0	 0	 0	 0	 17	 1	 0	 138	 1	 1.1	 0.9;
	 171	 1	 2.02	 1.01	 0	 0	 17	 1	 0	 69	 1	 1.1	 0.9;
	 172	 1	 1.1	 0.69	 0	 0	 17	 1	 0	 69	 1	 1.1	 0.9;
	 173	 1	 0	 0	 0	 0	 17	 1	 0	 138	 1	 1.1	 0.9;
	 174	 1	 5.18	 2.76	 0	 0	 17	 1	 0	 138	 1	 1.1	 0.9;
	 175	 1	 2.98	 1.68	 0	 0	 17	 1	 0	 138	 1	 1.1	 0.9;
	 176	 1	 2.63	 1.63	 0	 0	 17	 1	 0	 138	 1	 1.1	 0.9;
	 177	 1	 2.09	 1.28	 0	 0	 17	 1	 0	 69	 1	 1.1	 0.9;
	 178	 1	 4.52	 2.67	 0	 0	 17	 1	 0	 69	 1	 1.1	 0.9;
	 179	 1	 8.72	 3.87	 0	 0	 17	 1	 0	 69	 1	 1.1	 0.9;
	 180	 1	 4.36	 2.2	 0	 0	 17	 1	 0	 69	 1	 1.1	 0.9;
	 181	 1	 0	 0	 0	 0	 17	 1	 0	 138	 1	 1.1	 0.9;
	 182	 1	 1.28	 0.83	 0	 0	 17	 1	 0	 69	 1	 1.1	 0.9;
	 183	 1	 3.89	 2.21	 0	 0	 17	 1	 0	 69	 1	 1.1	 0.9;
	 184	 1	 6.25	 3.21	 0	 0	 17	 1	 0	 69	 1	 1.1	 0.9;
	 185	 1	 2.82	 1.62	 0	 0	 17	 1	 0	 69	 1	 1.1	 0.9;
	 186	 1	 1.84	 1.24	 0	 0	 17	 1	 0	 69	 1	 1.1	 0.9;
	 187	 1	 5.56	 2.84	 0	 0	 17	 1	 0	 69	 1	 1.1	 0.9;
	 188	 1	 2.61	 1.34	 0	 0	 17	 1	 0	 69	 1	 1.1	 0.9;
	 189	 1	 3.95	 2.28	 0	 0	 17	 1	 0	 69	 1	 1.1	 0.9;
	 190	 1	 1.5	 0.96	 0	 0	 17	 1	 0	 69	 1	 1.1	 0.9;
	 191	 1	 3.09	 1.85	 0	 0	 17	 1	 0	 69	 1	 1.1	 0.9;
	 192	 1	 5.98	 2.72	 0	 0	 17	 1	 0	 69	 1	 1.1	 0.9;
	 193	 1	 3.91	 2.18	 0	 0	 17	 1	 0	 69	 1	 1.1	 0.9;
	 194	 1	 3.29	 1.77	 0	 0	 17	 1	 0	 69	 1	 1.1	 0.9;
	 195	 1	 0	 0	 0	 0	 17	 1	 0	 138	 1	 1.1	 0.9;
	 196	 1	 1.38	 0.8	 0	 0	 17	 1	 0	 69	 1	 1.1	 0.9;
	 197	 1	 2.7	 1.26	 0	 0	 17	 1	 0	 69	 1	 1.1	 0.9;
	 198	 1	 0	 0	 0	 0	 17	 1	 0	 138	 1	 1.1	 0.9;
	 199	 1	 0.64	 0.42	 0	 0	 17	 1	 0	 138	 1	 1.1	 0.9;
	 200	 1	 1.91	 1.33	 0	 0	 17	 1	 0	 69	 1	 1.1	 0.9;
...
];

mpc_regionR1.gen = [
%	bus         Pg          Qg          Qmax        Qmin        Vg          mBase       status      Pmax        Pmin        Pc1         Pc2         Qc1min      Qc1max      Qc2min      Qc2max      ramp_agc    ramp_10     ramp_30     ramp_q      apf         
	 1	 233.5	 15.2	 204.4	-174	 1	 100	 1	 347	 120	 0	 0	 0	 0	 0	 0	 0	 0	 0	 0	 329.8;
	 1	 186	 39.2	 204.4	-126	 1	 100	 1	 252	 120	 0	 0	 0	 0	 0	 0	 0	 0	 0	 0	 329.8;
	 1	 633.5	 0	 574	-574	 1	 100	 1	 1147	 120	 0	 0	 0	 0	 0	 0	 0	 0	 0	 0	 329.8;
	 1	 256.5	 3.7	 204.4	-197	 1	 100	 1	 393	 120	 0	 0	 0	 0	 0	 0	 0	 0	 0	 0	 329.8;
	 1	 195.5	 34.2	 204.4	-136	 1	 100	 1	 271	 120	 0	 0	 0	 0	 0	 0	 0	 0	 0	 0	 329.8;
	 1	 197.5	 33.2	 204.4	-138	 1	 100	 1	 275	 120	 0	 0	 0	 0	 0	 0	 0	 0	 0	 0	 329.8;
	 2	 434.5	 98.5	 544	-347	 1	 100	 1	 694	 175	 0	 0	 0	 0	 0	 0	 0	 0	 0	 0	 916.8;
	 2	 0	 0	 164.4	-88.4	 1	 100	 0	 136	 50	 0	 0	 0	 0	 0	 0	 0	 0	 0	 0	 265.2;
	 2	 0	 0	 313.9	-126.3	 1	 100	 0	 230	 50	 0	 0	 0	 0	 0	 0	 0	 0	 0	 0	 378.8;
	 3	 178.5	 0	 156	-156	 1	 100	 1	 312	 45	 0	 0	 0	 0	 0	 0	 0	 0	 0	 0	 147;
	 3	 266.5	 0	 244	-244	 1	 100	 1	 488	 45	 0	 0	 0	 0	 0	 0	 0	 0	 0	 0	 147;
	 3	 140.5	 0	 118	-118	 1	 100	 1	 236	 45	 0	 0	 0	 0	 0	 0	 0	 0	 0	 0	 147;
	 3	 212.5	 0	 170	-170	 1	 100	 1	 340	 85	 0	 0	 0	 0	 0	 0	 0	 0	 0	 0	 245;
	 3	 205.5	 0	 163	-163	 1	 100	 1	 326	 85	 0	 0	 0	 0	 0	 0	 0	 0	 0	 0	 245;
	 3	 196	 0	 154	-154	 1	 100	 1	 307	 85	 0	 0	 0	 0	 0	 0	 0	 0	 0	 0	 245;
	 4	 221.25	 0	 193	-193	 1	 100	 1	 385	 57.5	 0	 0	 0	 0	 0	 0	 0	 0	 0	 0	 188.7;
	 4	 168.75	 0	 140	-140	 1	 100	 1	 280	 57.5	 0	 0	 0	 0	 0	 0	 0	 0	 0	 0	 188.7;
	 4	 164.5	 0	 135	-135	 1	 100	 1	 269	 60	 0	 0	 0	 0	 0	 0	 0	 0	 0	 0	 213.4;
	 4	 153.5	 0	 131	-131	 1	 100	 1	 262	 45	 0	 0	 0	 0	 0	 0	 0	 0	 0	 0	 188.7;
	 4	 210	 0	 188	-188	 1	 100	 1	 375	 45	 0	 0	 0	 0	 0	 0	 0	 0	 0	 0	 188.7;
	 5	 113	 10.7	 105.4	-84	 1	 100	 1	 168	 58	 0	 0	 0	 0	 0	 0	 0	 0	 0	 0	 170;
	 5	 134.5	 0	 106	-106	 1	 100	 1	 211	 58	 0	 0	 0	 0	 0	 0	 0	 0	 0	 0	 170;
	 5	 165.5	 0	 137	-137	 1	 100	 1	 273	 58	 0	 0	 0	 0	 0	 0	 0	 0	 0	 0	 170;
	 5	 87.5	 23.2	 105.4	-59	 1	 100	 1	 117	 58	 0	 0	 0	 0	 0	 0	 0	 0	 0	 0	 170;
	 6	 274.5	 0	 250	-250	 1	 100	 1	 499	 50	 0	 0	 0	 0	 0	 0	 0	 0	 0	 0	 154.7;
	 11	 67	 0	 57	-57	 1	 100	 1	 114	 20	 0	 0	 0	 0	 0	 0	 0	 0	 0	 0	 80;
	 11	 38.5	 0.2	 49.6	-49.2	 1	 100	 1	 57	 20	 0	 0	 0	 0	 0	 0	 0	 0	 0	 0	 80;
	 11	 60.5	 0	 51	-51	 1	 100	 1	 101	 20	 0	 0	 0	 0	 0	 0	 0	 0	 0	 0	 80;
	 11	 34.5	 0	 43.2	-43.2	 1	 100	 1	 59	 10	 0	 0	 0	 0	 0	 0	 0	 0	 0	 0	 44;
	 11	 28.5	 0	 43.2	-43.2	 1	 100	 1	 47	 10	 0	 0	 0	 0	 0	 0	 0	 0	 0	 0	 44;
	 11	 22.5	 0	 43.2	-43.2	 1	 100	 1	 35	 10	 0	 0	 0	 0	 0	 0	 0	 0	 0	 0	 47;
	 12	 122.75	 0	 119	-119	 1	 100	 1	 238	 7.5	 0	 0	 0	 0	 0	 0	 0	 0	 0	 0	 39.1;
	 12	 164.75	 0	 161	-161	 1	 100	 1	 322	 7.5	 0	 0	 0	 0	 0	 0	 0	 0	 0	 0	 39.1;
	 12	 204.5	 0	 192	-192	 1	 100	 1	 384	 25	 0	 0	 0	 0	 0	 0	 0	 0	 0	 0	 83.5;
	 13	 35.435	 0	 66	-66	 1	 100	 1	 67	 3.87	 0	 0	 0	 0	 0	 0	 0	 0	 0	 0	 18;
	 13	 24.435	 0	 66	-66	 1	 100	 1	 45	 3.87	 0	 0	 0	 0	 0	 0	 0	 0	 0	 0	 18;
	 15	 14	 0	 28.8	-28.8	 1	 100	 1	 28	 0	 0	 0	 0	 0	 0	 0	 0	 0	 0	 0	 10.5;
	 15	 15.5	 0	 28.8	-28.8	 1	 100	 1	 31	 0	 0	 0	 0	 0	 0	 0	 0	 0	 0	 0	 10.5;
	 15	 21.5	 0	 28.8	-28.8	 1	 100	 1	 43	 0	 0	 0	 0	 0	 0	 0	 0	 0	 0	 0	 10.5;
	 16	 21.75	 0	 20.4	-20.4	 1	 100	 1	 34	 9.5	 0	 0	 0	 0	 0	 0	 0	 0	 0	 0	 25;
	 16	 48.25	 0	 44	-44	 1	 100	 1	 87	 9.5	 0	 0	 0	 0	 0	 0	 0	 0	 0	 0	 25;
	 17	 164	 0	 162	-162	 1	 100	 1	 323	 5	 0	 0	 0	 0	 0	 0	 0	 0	 0	 0	 24;
	 19	 7.4025	 0	 9.6	-9.6	 1	 100	 1	 14	 0.805	 0	 0	 0	 0	 0	 0	 0	 0	 0	 0	 3.1857;
	 19	 11.9025	 0	 12	-12	 1	 100	 1	 23	 0.805	 0	 0	 0	 0	 0	 0	 0	 0	 0	 0	 3.1857;
	 19	 3.9025	 0	 9.6	-9.6	 1	 100	 1	 7	 0.805	 0	 0	 0	 0	 0	 0	 0	 0	 0	 0	 3.1857;
	 19	 9.4025	 0	 9.6	-9.6	 1	 100	 1	 18	 0.805	 0	 0	 0	 0	 0	 0	 0	 0	 0	 0	 3.1857;
	 19	 7.9025	 0	 9.6	-9.6	 1	 100	 1	 15	 0.805	 0	 0	 0	 0	 0	 0	 0	 0	 0	 0	 3.1857;
	 19	 4.4025	 0	 9.6	-9.6	 1	 100	 1	 8	 0.805	 0	 0	 0	 0	 0	 0	 0	 0	 0	 0	 3.1857;
	 19	 7.4025	 0	 9.6	-9.6	 1	 100	 1	 14	 0.805	 0	 0	 0	 0	 0	 0	 0	 0	 0	 0	 3.1857;
	 20	 119.25	 0	 116	-116	 1	 100	 1	 231	 7.5	 0	 0	 0	 0	 0	 0	 0	 0	 0	 0	 22;
	 20	 148.5	 0	 144	-144	 1	 100	 1	 288	 9	 0	 0	 0	 0	 0	 0	 0	 0	 0	 0	 29.3;
	 683	 55	 0	 50	-50	 1	 100	 1	 100	 10	 0	 0	 0	 0	 0	 0	 0	 0	 0	 0	 58;
	 683	 104.5	 0	 92	-92	 1	 100	 1	 184	 25	 0	 0	 0	 0	 0	 0	 0	 0	 0	 0	 80.1;
	 685	 59	 0	 54	-54	 1	 100	 1	 108	 10	 0	 0	 0	 0	 0	 0	 0	 0	 0	 0	 80;
	 686	 56.75	 0	 69.6	-69.6	 1	 100	 1	 96	 17.5	 0	 0	 0	 0	 0	 0	 0	 0	 0	 0	 73.1;
	 688	 25.75	 0	 38.4	-38.4	 1	 100	 1	 49	 2.5	 0	 0	 0	 0	 0	 0	 0	 0	 0	 0	 21;
	 688	 28.75	 0	 38.4	-38.4	 1	 100	 1	 55	 2.5	 0	 0	 0	 0	 0	 0	 0	 0	 0	 0	 24;
	 688	 20.7825	 0	 37.2	-37.2	 1	 100	 1	 40	 1.565	 0	 0	 0	 0	 0	 0	 0	 0	 0	 0	 16;
	 688	 64.7825	 0	 64	-64	 1	 100	 1	 128	 1.565	 0	 0	 0	 0	 0	 0	 0	 0	 0	 0	 16;
	 688	 67.2825	 0	 67	-67	 1	 100	 1	 133	 1.565	 0	 0	 0	 0	 0	 0	 0	 0	 0	 0	 16;
	 688	 28.7825	 0	 37.2	-37.2	 1	 100	 1	 56	 1.565	 0	 0	 0	 0	 0	 0	 0	 0	 0	 0	 16;
	 691	 26	 0	 24	-24	 1	 100	 1	 45	 7	 0	 0	 0	 0	 0	 0	 0	 0	 0	 0	 23;
	 691	 40.75	 0	 37	-37	 1	 100	 1	 73	 8.5	 0	 0	 0	 0	 0	 0	 0	 0	 0	 0	 33.1;
	 692	 113.85	 0	 110	-110	 1	 100	 1	 219	 8.7	 0	 0	 0	 0	 0	 0	 0	 0	 0	 0	 24.8;
	 692	 103.25	 0	 100	-100	 1	 100	 1	 199	 7.5	 0	 0	 0	 0	 0	 0	 0	 0	 0	 0	 23;
	 693	 0	 0	 5.7	-3.55	 1	 100	 0	 3	 0.25	 0	 0	 0	 0	 0	 0	 0	 0	 0	 0	 10.6;
	 693	 0	 0	 163	-163	 1	 100	 0	 326	 0.25	 0	 0	 0	 0	 0	 0	 0	 0	 0	 0	 10.6;
];

mpc_regionR1.branch = [
%	fbus        tbus        r           x           b           rateA       rateB       rateC       ratio       angle       status      angmin      angmax      
	 1	 7	 0.00019	 0.002147	 0.01955	 736	 772.8	 809.6	 0	 0	 1	-30	 30;
	 1	 264	 0.003108	 0.057795	 0.55979	 1046	 1098.3	 1150.6	 0	 0	 1	-30	 30;
	 1	 485	 0.000229	 0.002546	 0.02401	 736	 772.8	 809.6	 0	 0	 1	-30	 30;
	 1	 518	 0.00139	 0.024496	 0.40774	 1536	 1612.8	 1689.6	 0	 0	 1	-30	 30;
	 1	 674	 0.000208	 0.015578	 0	 950	 950	 950	 1	 0	 1	-30	 30;
	 1	 674	 0.000208	 0.015578	 0	 950	 950	 950	 1	 0	 1	-30	 30;
	 2	 406	 0.000973	 0.011462	 0.20031	 1190	 1249.5	 1309	 0	 0	 1	-30	 30;
	 2	 591	 0.000174	 0.003047	 0.0326	 1046	 1098.3	 1150.6	 0	 0	 1	-30	 30;
	 2	 625	 0.000246	 0.004234	 0.07373	 1536	 1612.8	 1689.6	 0	 0	 1	-30	 30;
	 2	 676	 0.00037	 0.029598	 0	 500	 500	 500	 1	 0	 1	-30	 30;
	 2	 676	 0.00037	 0.029598	 0	 500	 500	 500	 1	 0	 1	-30	 30;
	 3	 301	 0.001101	 0.019898	 0.31448	 1536	 1612.8	 1689.6	 0	 0	 1	-30	 30;
	 3	 669	 0.000813	 0.012782	 0.13327	 960	 1008	 1056	 0	 0	 1	-30	 30;
	 3	 678	 0.000438	 0.032886	 0	 450	 450	 450	 1	 0	 1	-30	 30;
	 3	 678	 0.000438	 0.032886	 0	 450	 450	 450	 1	 0	 1	-30	 30;
	 4	 419	 0.001198	 0.01702	 0.16107	 868	 911.4	 954.8	 0	 0	 1	-30	 30;
	 4	 613	 5.8e-05	 0.000665	 0.00583	 736	 772.8	 809.6	 0	 0	 1	-30	 30;
	 4	 679	 0.000329	 0.024664	 0	 600	 600	 600	 1	 0	 1	-30	 30;
	 4	 679	 0.000329	 0.024664	 0	 600	 600	 600	 1	 0	 1	-30	 30;
	 5	 115	 0.001133	 0.013081	 0.11471	 736	 772.8	 809.6	 0	 0	 1	-30	 30;
	 5	 680	 0.000282	 0.019731	 0	 750	 750	 750	 1	 0	 1	-30	 30;
	 5	 680	 0.000282	 0.019731	 0	 750	 750	 750	 1	 0	 1	-30	 30;
	 6	 129	 0.000639	 0.007062	 0.00212	 317	 332.9	 348.7	 0	 0	 1	-30	 30;
	 6	 150	 0.003097	 0.010626	 0.00255	 142	 149.1	 156.2	 0	 0	 1	-30	 30;
	 6	 682	 0.003471	 0.12495	 0	 100	 100	 100	 1	 0	 1	-30	 30;
	 6	 682	 0.003471	 0.12495	 0	 100	 100	 100	 1	 0	 1	-30	 30;
	 7	 683	 0.000359	 0.026907	 0	 550	 550	 550	 1	 0	 1	-30	 30;
	 7	 683	 0.000359	 0.026907	 0	 550	 550	 550	 1	 0	 1	-30	 30;
	 8	 583	 5e-05	 0.000618	 0.00621	 812	 852.6	 893.2	 0	 0	 1	-30	 30;
	 8	 588	 0.000175	 0.00201	 0.01969	 768	 806.4	 844.8	 0	 0	 1	-30	 30;
	 8	 684	 0.001681	 0.073981	 0	 200	 200	 200	 1	 0	 1	-30	 30;
	 8	 684	 0.001681	 0.073981	 0	 200	 200	 200	 1	 0	 1	-30	 30;
	 9	 85	 0.000675	 0.007407	 0.07196	 736	 772.8	 809.6	 0	 0	 1	-30	 30;
	 9	 301	 0.000334	 0.003856	 0.03381	 736	 772.8	 809.6	 0	 0	 1	-30	 30;
	 9	 686	 0.000783	 0.042278	 0	 350	 350	 350	 1	 0	 1	-30	 30;
	 9	 686	 0.000783	 0.042278	 0	 350	 350	 350	 1	 0	 1	-30	 30;
	 10	 198	 0.000255	 0.001806	 0.0005	 230	 241.5	 253	 0	 0	 1	-30	 30;
	 10	 688	 0.002136	 0.083306	 0	 150	 150	 150	 1	 0	 1	-30	 30;
	 10	 688	 0.002136	 0.083306	 0	 150	 150	 150	 1	 0	 1	-30	 30;
	 11	 115	 0.001187	 0.013509	 0.12204	 736	 772.8	 809.6	 0	 0	 1	-30	 30;
	 11	 217	 0.00021	 0.002374	 0.02161	 736	 772.8	 809.6	 0	 0	 1	-30	 30;
	 11	 689	 0.000783	 0.042278	 0	 350	 350	 350	 1	 0	 1	-30	 30;
	 11	 689	 0.000783	 0.042278	 0	 350	 350	 350	 1	 0	 1	-30	 30;
	 12	 43	 3.4e-05	 0.00038	 0.00346	 736	 772.8	 809.6	 0	 0	 1	-30	 30;
	 12	 625	 0.000218	 0.002521	 0.0221	 736	 772.8	 809.6	 0	 0	 1	-30	 30;
	 13	 332	 0.001488	 0.007711	 0.00188	 185	 194.2	 203.5	 0	 0	 1	-30	 30;
	 686	 13	 0.000149	 0.000615	 0.00015	 159	 166.9	 174.9	 0	 0	 1	-30	 30;
	 14	 412	 0.002338	 0.00802	 0.00192	 142	 149.1	 156.2	 0	 0	 1	-30	 30;
	 14	 691	 0.003471	 0.12495	 0	 100	 100	 100	 1	 0	 1	-30	 30;
	 14	 691	 0.003471	 0.12495	 0	 100	 100	 100	 1	 0	 1	-30	 30;
	 14	 810	 0.009259	 0.021494	 0.00655	 118	 123.9	 129.8	 0	 0	 1	-30	 30;
	 15	 496	 0.029992	 0.14471	 0.00256	 92	 96.6	 101.2	 0	 0	 1	-30	 30;
	 15	 562	 0.042939	 0.11038	 0.00171	 59	 61.9	 64.9	 0	 0	 1	-30	 30;
	 15	 563	 0.023105	 0.018285	 0.00023	 24	 25.2	 26.4	 0	 0	 1	-30	 30;
	 15	 564	 0.069699	 0.090708	 0.00127	 33	 34.7	 36.3	 0	 0	 1	-30	 30;
	 16	 493	 0.028402	 0.1386	 0.00239	 92	 96.6	 101.2	 0	 0	 1	-30	 30;
	 16	 575	 0.024751	 0.15218	 0.00274	 110	 115.5	 121	 0	 0	 1	-30	 30;
	 16	 576	 0.03743	 0.065826	 0.00124	 41	 43.1	 45.1	 0	 0	 1	-30	 30;
	 17	 624	 0.000253	 0.000854	 0.00021	 142	 149.1	 156.2	 0	 0	 1	-30	 30;
	 17	 875	 0.001095	 0.003653	 0.00093	 142	 149.1	 156.2	 0	 0	 1	-30	 30;
	 18	 26	 0.00485	 0.054604	 0.01579	 317	 332.9	 348.7	 0	 0	 1	-30	 30;
	 18	 27	 0.00361	 0.027459	 0.00863	 250	 262.5	 275	 0	 0	 1	-30	 30;
	 18	 692	 0.002136	 0.083306	 0	 150	 150	 150	 1	 0	 1	-30	 30;
	 18	 692	 0.002136	 0.083306	 0	 150	 150	 150	 1	 0	 1	-30	 30;
	 18	 695	 0.000541	 0.008271	 0.00266	 399	 418.9	 438.9	 0	 0	 1	-30	 30;
	 19	 611	 0.00475	 0.008484	 0.00013	 39	 41	 42.9	 0	 0	 1	-30	 30;
	 19	 626	 0.020698	 0.027203	 0.00037	 33	 34.7	 36.3	 0	 0	 1	-30	 30;
	 19	 627	 0.038485	 0.030166	 0.00039	 24	 25.2	 26.4	 0	 0	 1	-30	 30;
	 19	 871	 0.050311	 0.039816	 0.0005	 24	 25.2	 26.4	 0	 0	 1	-30	 30;
	 20	 629	 0.001117	 0.004544	 0.00111	 159	 166.9	 174.9	 0	 0	 1	-30	 30;
	 20	 875	 0.000609	 0.002394	 0.00063	 159	 166.9	 174.9	 0	 0	 1	-30	 30;
	 21	 39	 0.000994	 0.003409	 0.00082	 142	 149.1	 156.2	 0	 0	 1	-30	 30;
	 21	 693	 0.003471	 0.12495	 0	 100	 100	 100	 1	 0	 1	-30	 30;
	 21	 693	 0.003471	 0.12495	 0	 100	 100	 100	 1	 0	 1	-30	 30;
	 22	 31	 0.011598	 0.030653	 0.00717	 118	 123.9	 129.8	 0	 0	 1	-30	 30;
	 22	 42	 0.005384	 0.014228	 0.00333	 118	 123.9	 129.8	 0	 0	 1	-30	 30;
	 22	 694	 0.00806	 0.24987	 0	 50	 50	 50	 1	 0	 1	-30	 30;
	 22	 694	 0.00806	 0.24987	 0	 50	 50	 50	 1	 0	 1	-30	 30;
	 23	 615	 0.000285	 0.003173	 0.02992	 736	 772.8	 809.6	 0	 0	 1	-30	 30;
	 23	 695	 0.000949	 0.049324	 0	 300	 300	 300	 1	 0	 1	-30	 30;
	 23	 695	 0.000949	 0.049324	 0	 300	 300	 300	 1	 0	 1	-30	 30;
	 24	 25	 0.038655	 0.099369	 0.00154	 59	 61.9	 64.9	 0	 0	 1	-30	 30;
	 692	 24	 0.043459	 0.11172	 0.00173	 59	 61.9	 64.9	 0	 0	 1	-30	 30;
	 24	 824	 0.036522	 0.083908	 0.00127	 57	 59.9	 62.7	 0	 0	 1	-30	 30;
	 25	 696	 0.043763	 0.1016	 0.00151	 57	 59.9	 62.7	 0	 0	 1	-30	 30;
	 26	 50	 0.004134	 0.024211	 0.00659	 205	 215.2	 225.5	 0	 0	 1	-30	 30;
	 26	 696	 0.003471	 0.12495	 0	 100	 100	 100	 1	 0	 1	-30	 30;
	 26	 696	 0.003471	 0.12495	 0	 100	 100	 100	 1	 0	 1	-30	 30;
	 27	 37	 0.004719	 0.035364	 0.00863	 230	 241.5	 253	 0	 0	 1	-30	 30;
	 28	 35	 0.000508	 0.005759	 0.05243	 736	 772.8	 809.6	 0	 0	 1	-30	 30;
	 28	 43	 0.000761	 0.008469	 0.07988	 736	 772.8	 809.6	 0	 0	 1	-30	 30;
	 28	 697	 0.001184	 0.059188	 0	 250	 250	 250	 1	 0	 1	-30	 30;
	 28	 697	 0.001184	 0.059188	 0	 250	 250	 250	 1	 0	 1	-30	 30;
	 29	 698	 0.051876	 0.082807	 0.00191	 41	 43.1	 45.1	 0	 0	 1	-30	 30;
	 29	 701	 0.11169	 0.11202	 0.00181	 30	 31.5	 33	 0	 0	 1	-30	 30;
	 30	 31	 0.009534	 0.023967	 0.00621	 118	 123.9	 129.8	 0	 0	 1	-30	 30;
	 30	 698	 0.003471	 0.12495	 0	 100	 100	 100	 1	 0	 1	-30	 30;
	 30	 698	 0.003471	 0.12495	 0	 100	 100	 100	 1	 0	 1	-30	 30;
	 30	 708	 0.012543	 0.032565	 0.0079	 118	 123.9	 129.8	 0	 0	 1	-30	 30;
	 31	 32	 0.019458	 0.054266	 0.01139	 118	 123.9	 129.8	 0	 0	 1	-30	 30;
	 31	 699	 0.00806	 0.24987	 0	 50	 50	 50	 1	 0	 1	-30	 30;
	 31	 699	 0.00806	 0.24987	 0	 50	 50	 50	 1	 0	 1	-30	 30;
	 32	 660	 0.011648	 0.029281	 0.00759	 118	 123.9	 129.8	 0	 0	 1	-30	 30;
	 32	 661	 0.006531	 0.021301	 0.00566	 142	 149.1	 156.2	 0	 0	 1	-30	 30;
	 32	 700	 0.003471	 0.12495	 0	 100	 100	 100	 1	 0	 1	-30	 30;
	 32	 700	 0.003471	 0.12495	 0	 100	 100	 100	 1	 0	 1	-30	 30;
	 699	 33	 0.14235	 0.092165	 0.00175	 24	 25.2	 26.4	 0	 0	 1	-30	 30;
	 700	 33	 0.14106	 0.10379	 0.00152	 24	 25.2	 26.4	 0	 0	 1	-30	 30;
	 34	 660	 0.006296	 0.031047	 0.0084	 185	 194.2	 203.5	 0	 0	 1	-30	 30;
	 697	 34	 0.015147	 0.03894	 0.00964	 118	 123.9	 129.8	 0	 0	 1	-30	 30;
	 34	 701	 0.003471	 0.12495	 0	 100	 100	 100	 1	 0	 1	-30	 30;
	 34	 701	 0.003471	 0.12495	 0	 100	 100	 100	 1	 0	 1	-30	 30;
	 35	 669	 0.001293	 0.014196	 0.13795	 736	 772.8	 809.6	 0	 0	 1	-30	 30;
	 35	 702	 0.000529	 0.036996	 0	 400	 400	 400	 1	 0	 1	-30	 30;
	 693	 36	 0.052454	 0.15045	 0.00231	 64	 67.2	 70.4	 0	 0	 1	-30	 30;
	 698	 36	 0.064258	 0.17033	 0.00432	 71	 74.6	 78.1	 0	 0	 1	-30	 30;
	 703	 36	 0.013145	 0.030517	 0.00045	 57	 59.9	 62.7	 0	 0	 1	-30	 30;
	 37	 40	 0.00482	 0.020977	 0.00598	 175	 183.7	 192.5	 0	 0	 1	-30	 30;
	 38	 39	 0.003663	 0.012947	 0.00292	 142	 149.1	 156.2	 0	 0	 1	-30	 30;
	 38	 316	 0.003943	 0.024503	 0.00692	 219	 229.9	 240.9	 0	 0	 1	-30	 30;
	 702	 38	 0.001434	 0.021626	 0.00645	 388	 407.4	 426.8	 0	 0	 1	-30	 30;
	 38	 704	 0.003471	 0.12495	 0	 100	 100	 100	 1	 0	 1	-30	 30;
	 38	 704	 0.003471	 0.12495	 0	 100	 100	 100	 1	 0	 1	-30	 30;
	 39	 705	 0.003471	 0.12495	 0	 100	 100	 100	 1	 0	 1	-30	 30;
	 39	 705	 0.003471	 0.12495	 0	 100	 100	 100	 1	 0	 1	-30	 30;
	 40	 41	 0.001293	 0.010018	 0.00351	 261	 274	 287.1	 0	 0	 1	-30	 30;
	 40	 706	 0.003471	 0.12495	 0	 100	 100	 100	 1	 0	 1	-30	 30;
	 40	 706	 0.003471	 0.12495	 0	 100	 100	 100	 1	 0	 1	-30	 30;
	 41	 313	 0.002896	 0.029268	 0.00861	 293	 307.6	 322.3	 0	 0	 1	-30	 30;
	 41	 314	 0.006921	 0.020727	 0.00467	 128	 134.4	 140.8	 0	 0	 1	-30	 30;
	 41	 707	 0.00142	 0.062484	 0	 200	 200	 200	 1	 0	 1	-30	 30;
	 41	 707	 0.00142	 0.062484	 0	 200	 200	 200	 1	 0	 1	-30	 30;
	 41	 708	 0.015743	 0.13074	 0.03443	 250	 262.5	 275	 0	 0	 1	-30	 30;
	 42	 628	 0.001653	 0.00461	 0.00097	 118	 123.9	 129.8	 0	 0	 1	-30	 30;
	 43	 708	 0.000329	 0.024664	 0	 600	 600	 600	 1	 0	 1	-30	 30;
	 698	 44	 0.040904	 0.076058	 0.00178	 57	 59.9	 62.7	 0	 0	 1	-30	 30;
	 709	 44	 0.040161	 0.035987	 0.00074	 30	 31.5	 33	 0	 0	 1	-30	 30;
	 44	 877	 0.041348	 0.074607	 0.00108	 39	 41	 42.9	 0	 0	 1	-30	 30;
	 45	 612	 0.017777	 0.014068	 0.00018	 24	 25.2	 26.4	 0	 0	 1	-30	 30;
	 699	 45	 0.20816	 0.16476	 0.00207	 24	 25.2	 26.4	 0	 0	 1	-30	 30;
	 45	 878	 0.044915	 0.029078	 0.00055	 24	 25.2	 26.4	 0	 0	 1	-30	 30;
	 46	 47	 0.055336	 0.12656	 0.00309	 64	 67.2	 70.4	 0	 0	 1	-30	 30;
	 46	 55	 0.040834	 0.10497	 0.00162	 59	 61.9	 64.9	 0	 0	 1	-30	 30;
	 46	 730	 0.084578	 0.22362	 0.00406	 64	 67.2	 70.4	 0	 0	 1	-30	 30;
	 47	 808	 0.051839	 0.13704	 0.00249	 64	 67.2	 70.4	 0	 0	 1	-30	 30;
	 696	 48	 0.081857	 0.14771	 0.00214	 39	 41	 42.9	 0	 0	 1	-30	 30;
	 48	 825	 0.081708	 0.10739	 0.00147	 33	 34.7	 36.3	 0	 0	 1	-30	 30;
	 49	 51	 0.052649	 0.10424	 0.00153	 41	 43.1	 45.1	 0	 0	 1	-30	 30;
	 696	 49	 0.042394	 0.14143	 0.00224	 71	 74.6	 78.1	 0	 0	 1	-30	 30;
	 50	 56	 0.004548	 0.024231	 0.0068	 193	 202.6	 212.3	 0	 0	 1	-30	 30;
	 51	 52	 0.020732	 0.086076	 0.00224	 95	 99.8	 104.5	 0	 0	 1	-30	 30;
	 707	 51	 0.017159	 0.071627	 0.00207	 96	 100.8	 105.6	 0	 0	 1	-30	 30;
	 51	 774	 0.10994	 0.10127	 0.00162	 28	 29.4	 30.8	 0	 0	 1	-30	 30;
	 52	 53	 0.024424	 0.074927	 0.00203	 80	 84	 88	 0	 0	 1	-30	 30;
	 52	 71	 0.11635	 0.20785	 0.00307	 39	 41	 42.9	 0	 0	 1	-30	 30;
	 52	 710	 0.052678	 0.14949	 0.00235	 64	 67.2	 70.4	 0	 0	 1	-30	 30;
	 52	 774	 0.093477	 0.16441	 0.00309	 41	 43.1	 45.1	 0	 0	 1	-30	 30;
	 53	 54	 0.037973	 0.089923	 0.00164	 59	 61.9	 64.9	 0	 0	 1	-30	 30;
	 54	 140	 0.039037	 0.10035	 0.00155	 59	 61.9	 64.9	 0	 0	 1	-30	 30;
	 55	 710	 0.018381	 0.092981	 0.00162	 95	 99.8	 104.5	 0	 0	 1	-30	 30;
	 56	 710	 0.003471	 0.12495	 0	 100	 100	 100	 1	 0	 1	-30	 30;
	 56	 710	 0.003471	 0.12495	 0	 100	 100	 100	 1	 0	 1	-30	 30;
	 57	 88	 0.06525	 0.1515	 0.00225	 57	 59.9	 62.7	 0	 0	 1	-30	 30;
	 57	 712	 0.038846	 0.098795	 0.00156	 59	 61.9	 64.9	 0	 0	 1	-30	 30;
	 58	 59	 0.008735	 0.029965	 0.00718	 142	 149.1	 156.2	 0	 0	 1	-30	 30;
	 58	 87	 0.007179	 0.024626	 0.0059	 142	 149.1	 156.2	 0	 0	 1	-30	 30;
	 59	 711	 0.003471	 0.12495	 0	 100	 100	 100	 1	 0	 1	-30	 30;
	 59	 711	 0.003471	 0.12495	 0	 100	 100	 100	 1	 0	 1	-30	 30;
	 60	 647	 0.030199	 0.10567	 0.00219	 80	 84	 88	 0	 0	 1	-30	 30;
	 711	 60	 0.047636	 0.097488	 0.0024	 59	 61.9	 64.9	 0	 0	 1	-30	 30;
	 61	 99	 0.034028	 0.094922	 0.01993	 118	 123.9	 129.8	 0	 0	 1	-30	 30;
	 61	 712	 0.003471	 0.12495	 0	 100	 100	 100	 1	 0	 1	-30	 30;
	 61	 712	 0.003471	 0.12495	 0	 100	 100	 100	 1	 0	 1	-30	 30;
	 62	 66	 0.001951	 0.013239	 0.00025	 115	 120.7	 126.5	 0	 0	 1	-30	 30;
	 62	 713	 0.002319	 0.014042	 0.00044	 125	 131.3	 137.5	 0	 0	 1	-30	 30;
	 63	 69	 0.001671	 0.005733	 0.00137	 142	 149.1	 156.2	 0	 0	 1	-30	 30;
	 63	 713	 0.003471	 0.12495	 0	 100	 100	 100	 1	 0	 1	-30	 30;
	 63	 713	 0.003471	 0.12495	 0	 100	 100	 100	 1	 0	 1	-30	 30;
	 64	 720	 0.017339	 0.012757	 0.00019	 24	 25.2	 26.4	 0	 0	 1	-30	 30;
	 65	 720	 0.023455	 0.023461	 0.00032	 28	 29.4	 30.8	 0	 0	 1	-30	 30;
	 66	 78	 0.012733	 0.043493	 0.00095	 80	 84	 88	 0	 0	 1	-30	 30;
	 66	 80	 0.003729	 0.014287	 0.0004	 92	 96.6	 101.2	 0	 0	 1	-30	 30;
	 66	 720	 0.003921	 0.023741	 0.00074	 125	 131.3	 137.5	 0	 0	 1	-30	 30;
	 67	 68	 0.025732	 0.020364	 0.00026	 24	 25.2	 26.4	 0	 0	 1	-30	 30;
	 68	 82	 0.070869	 0.056086	 0.00071	 24	 25.2	 26.4	 0	 0	 1	-30	 30;
	 713	 68	 0.026189	 0.026195	 0.00035	 28	 29.4	 30.8	 0	 0	 1	-30	 30;
	 68	 714	 0.008119	 0.02087	 0.00032	 59	 61.9	 64.9	 0	 0	 1	-30	 30;
	 69	 70	 0.001531	 0.006018	 0.00157	 159	 166.9	 174.9	 0	 0	 1	-30	 30;
	 69	 714	 0.003471	 0.12495	 0	 100	 100	 100	 1	 0	 1	-30	 30;
	 69	 714	 0.003471	 0.12495	 0	 100	 100	 100	 1	 0	 1	-30	 30;
	 70	 73	 0.004574	 0.012452	 0.00274	 118	 123.9	 129.8	 0	 0	 1	-30	 30;
	 70	 84	 0.004481	 0.015098	 0.00375	 142	 149.1	 156.2	 0	 0	 1	-30	 30;
	 70	 715	 0.00806	 0.24987	 0	 50	 50	 50	 1	 0	 1	-30	 30;
	 70	 715	 0.00806	 0.24987	 0	 50	 50	 50	 1	 0	 1	-30	 30;
	 713	 71	 0.057589	 0.063342	 0.00085	 30	 31.5	 33	 0	 0	 1	-30	 30;
	 714	 71	 0.050254	 0.047127	 0.00073	 28	 29.4	 30.8	 0	 0	 1	-30	 30;
	 715	 71	 0.02657	 0.024474	 0.00039	 28	 29.4	 30.8	 0	 0	 1	-30	 30;
	 715	 72	 0.022128	 0.024338	 0.00032	 30	 31.5	 33	 0	 0	 1	-30	 30;
	 72	 716	 0.013713	 0.024115	 0.00045	 41	 43.1	 45.1	 0	 0	 1	-30	 30;
	 73	 716	 0.002136	 0.083306	 0	 150	 150	 150	 1	 0	 1	-30	 30;
...
];

mpc_regionR1.gencost = [
%	2           startup     shutdown    n           c(n-1)...c0 
	 2	 0	 0	 3	 0.009	 14.879	 303.56;
	 2	 0	 0	 3	 0.009	 14.879	 303.56;
	 2	 0	 0	 3	 0.009	 14.879	 303.56;
	 2	 0	 0	 3	 0.009	 14.879	 303.56;
	 2	 0	 0	 3	 0.009	 14.879	 303.56;
	 2	 0	 0	 3	 0.009	 14.879	 303.56;
	 2	 0	 0	 3	 0.002	 12.513	 1488.7;
	 2	 0	 0	 3	 0.005	 13.596	 444.79;
	 2	 0	 0	 3	 0.004	 13.196	 576.64;
	 2	 0	 0	 3	 0.032	 9.547	 2249.86;
	 2	 0	 0	 3	 0.032	 9.547	 2249.86;
	 2	 0	 0	 3	 0.032	 9.547	 2249.86;
	 2	 0	 0	 3	 0.026	 11.398	 993.75;
	 2	 0	 0	 3	 0.026	 11.398	 993.75;
	 2	 0	 0	 3	 0.026	 11.398	 993.75;
	 2	 0	 0	 3	 0.009	 18.772	 588.04;
	 2	 0	 0	 3	 0.009	 18.772	 588.04;
	 2	 0	 0	 3	 0.009	 18.772	 588.04;
	 2	 0	 0	 3	 0.009	 18.772	 588.04;
	 2	 0	 0	 3	 0.009	 18.772	 588.04;
	 2	 0	 0	 3	 0.005	 60.757	 2894.55;
	 2	 0	 0	 3	 0.005	 60.757	 2894.55;
	 2	 0	 0	 3	 0.005	 60.757	 2894.55;
	 2	 0	 0	 3	 0.005	 60.757	 2894.55;
	 2	 0	 0	 3	 0.009	 14.342	 278.48;
	 2	 0	 0	 3	 0.019	 15.391	 153.01;
	 2	 0	 0	 3	 0.019	 15.391	 153.01;
	 2	 0	 0	 3	 0.019	 15.391	 153.01;
	 2	 0	 0	 3	 0.035	 16.01	 88.48;
	 2	 0	 0	 3	 0.035	 16.01	 88.48;
	 2	 0	 0	 3	 0.033	 16.01	 95.26;
	 2	 0	 0	 3	 0.026	 13.537	 318.86;
	 2	 0	 0	 3	 0.026	 13.537	 318.86;
	 2	 0	 0	 3	 0.007	 16.922	 371.49;
	 2	 0	 0	 3	 0.026	 13.537	 318.86;
	 2	 0	 0	 3	 0.026	 13.537	 318.86;
	 2	 0	 0	 3	 0.062	 14.879	 43.97;
	 2	 0	 0	 3	 0.062	 14.879	 43.97;
	 2	 0	 0	 3	 0.062	 14.879	 43.97;
	 2	 0	 0	 3	 0.026	 13.537	 318.86;
	 2	 0	 0	 3	 0.026	 13.537	 318.86;
	 2	 0	 0	 3	 0.008	 50.578	 1755.23;
	 2	 0	 0	 3	 0.07	 26.977	 128.6;
	 2	 0	 0	 3	 0.07	 26.977	 128.6;
	 2	 0	 0	 3	 0.07	 26.977	 128.6;
	 2	 0	 0	 3	 0.07	 26.977	 128.6;
	 2	 0	 0	 3	 0.07	 26.977	 128.6;
	 2	 0	 0	 3	 0.07	 26.977	 128.6;
	 2	 0	 0	 3	 0.07	 26.977	 128.6;
	 2	 0	 0	 3	 0.072	 16.01	 43.36;
	 2	 0	 0	 3	 0.053	 16.01	 58.58;
	 2	 0	 0	 3	 0.053	 14.879	 51.34;
	 2	 0	 0	 3	 0.009	 18.772	 588.04;
	 2	 0	 0	 3	 0.019	 15.394	 152.1;
	 2	 0	 0	 3	 0.007	 16.922	 371.49;
	 2	 0	 0	 3	 0.076	 16.01	 41.17;
	 2	 0	 0	 3	 0.112	 25.445	 86.2;
	 2	 0	 0	 3	 0.041	 25.03	 203.9;
	 2	 0	 0	 3	 0.041	 25.03	 203.9;
	 2	 0	 0	 3	 0.041	 25.03	 203.9;
	 2	 0	 0	 3	 0.041	 25.03	 203.9;
	 2	 0	 0	 3	 0.053	 14.879	 51.34;
	 2	 0	 0	 3	 0.053	 14.879	 51.34;
	 2	 0	 0	 3	 0.026	 13.537	 318.86;
	 2	 0	 0	 3	 0.053	 14.879	 51.34;
	 2	 0	 0	 3	 0.026	 13.537	 318.86;
	 2	 0	 0	 3	 0.026	 13.537	 318.86;
];


% -------------------- mpc_regionR2 --------------------

mpc_regionR2.version = '2';
mpc_regionR2.baseMVA = 100.0000;
mpc_regionR2.bus = [
%	bus_i       type        Pd          Qd          Gs          Bs          area        Vm          Va          baseKV      zone        Vmax        Vmin        
	 1	 2	 0	 0	 0	 0	 17	 1	 0	 765	 1	 1.1	 0.9;
	 2	 1	 0	 0	 0	 0	 17	 1	 0	 765	 1	 1.1	 0.9;
	 3	 2	 0	 0	 0	 0	 17	 1	 0	 138	 1	 1.1	 0.9;
	 4	 2	 0	 0	 0	 0	 17	 1	 0	 69	 1	 1.1	 0.9;
	 5	 1	 0	 0	 0	 0	 17	 1	 0	 138	 1	 1.1	 0.9;
	 6	 2	 0	 0	 0	 0	 17	 1	 0	 69	 1	 1.1	 0.9;
	 7	 1	 0	 0	 0	 0	 17	 1	 0	 138	 1	 1.1	 0.9;
	 8	 2	 0	 0	 0	 0	 17	 1	 0	 138	 1	 1.1	 0.9;
	 9	 1	 0	 0	 0	 0	 17	 1	 0	 138	 1	 1.1	 0.9;
	 10	 2	 0	 0	 0	 0	 17	 1	 0	 69	 1	 1.1	 0.9;
	 11	 1	 0	 0	 0	 0	 17	 1	 0	 345	 1	 1.1	 0.9;
	 12	 2	 0	 0	 0	 0	 17	 1	 0	 69	 1	 1.1	 0.9;
	 13	 2	 0	 0	 0	 0	 17	 1	 0	 69	 1	 1.1	 0.9;
	 14	 2	 0	 0	 0	 0	 17	 1	 0	 69	 1	 1.1	 0.9;
	 15	 2	 0	 0	 0	 0	 17	 1	 0	 69	 1	 1.1	 0.9;
	 16	 1	 0	 0	 0	 0	 17	 1	 0	 138	 1	 1.1	 0.9;
	 17	 2	 0	 0	 0	 0	 17	 1	 0	 69	 1	 1.1	 0.9;
	 18	 2	 0	 0	 0	 0	 17	 1	 0	 69	 1	 1.1	 0.9;
	 19	 1	 0	 0	 0	 0	 17	 1	 0	 138	 1	 1.1	 0.9;
	 20	 2	 0	 0	 0	 0	 17	 1	 0	 138	 1	 1.1	 0.9;
	 21	 2	 0	 0	 0	 0	 17	 1	 0	 69	 1	 1.1	 0.9;
	 22	 2	 0	 0	 0	 0	 17	 1	 0	 69	 1	 1.1	 0.9;
	 23	 2	 0	 0	 0	 0	 17	 1	 0	 69	 1	 1.1	 0.9;
	 24	 1	 1.52	 0.73	 0	 0	 17	 1	 0	 69	 1	 1.1	 0.9;
	 25	 1	 2.69	 1.43	 0	 0	 17	 1	 0	 69	 1	 1.1	 0.9;
	 26	 1	 2.71	 1.44	 0	 0	 17	 1	 0	 69	 1	 1.1	 0.9;
	 27	 1	 4.36	 2.12	 0	 0	 17	 1	 0	 69	 1	 1.1	 0.9;
	 28	 1	 1.03	 0.56	 0	 0	 17	 1	 0	 69	 1	 1.1	 0.9;
	 29	 1	 0	 0	 0	-289.26	 17	 1	 0	 765	 1	 1.1	 0.9;
	 30	 1	 2.38	 1.43	 0	 0	 17	 1	 0	 69	 1	 1.1	 0.9;
	 31	 1	 5.5	 2.56	 0	 0	 17	 1	 0	 69	 1	 1.1	 0.9;
	 32	 1	 4.25	 2.33	 0	 0	 17	 1	 0	 69	 1	 1.1	 0.9;
	 33	 1	 0	 0	 0	 0	 17	 1	 0	 138	 1	 1.1	 0.9;
	 34	 1	 9.88	 5.11	 0	 0	 17	 1	 0	 69	 1	 1.1	 0.9;
	 35	 1	 24.55	 9.86	 0	 0	 17	 1	 0	 69	 1	 1.1	 0.9;
	 36	 1	 4.58	 2.44	 0	 0	 17	 1	 0	 69	 1	 1.1	 0.9;
	 37	 1	 1.73	 1.04	 0	 0	 17	 1	 0	 69	 1	 1.1	 0.9;
	 38	 1	 5.16	 3.04	 0	 0	 17	 1	 0	 69	 1	 1.1	 0.9;
	 39	 1	 2.83	 1.54	 0	 0	 17	 1	 0	 69	 1	 1.1	 0.9;
	 40	 1	 5.05	 2.73	 0	 0	 17	 1	 0	 69	 1	 1.1	 0.9;
	 41	 1	 2.92	 0.55	 0	 0	 17	 1	 0	 69	 1	 1.1	 0.9;
	 42	 1	 3.12	 1.39	 0	 0	 17	 1	 0	 69	 1	 1.1	 0.9;
	 43	 1	 2.39	 1.15	 0	 0	 17	 1	 0	 69	 1	 1.1	 0.9;
	 44	 1	 8.2	 3.06	 0	 0	 17	 1	 0	 69	 1	 1.1	 0.9;
	 45	 1	 2.47	 1.19	 0	 0	 17	 1	 0	 69	 1	 1.1	 0.9;
	 46	 1	 3.29	 1.43	 0	 0	 17	 1	 0	 69	 1	 1.1	 0.9;
	 47	 1	 7.05	 3.23	 0	 0	 17	 1	 0	 69	 1	 1.1	 0.9;
	 48	 1	 1.97	 1	 0	 0	 17	 1	 0	 69	 1	 1.1	 0.9;
	 49	 1	 2.69	 1.37	 0	 0	 17	 1	 0	 69	 1	 1.1	 0.9;
	 50	 1	 3.32	 1.89	 0	 0	 17	 1	 0	 69	 1	 1.1	 0.9;
	 51	 1	 2.53	 1.2	 0	 0	 17	 1	 0	 69	 1	 1.1	 0.9;
	 52	 1	 0	 0	 0	 0	 17	 1	 0	 138	 1	 1.1	 0.9;
	 53	 1	 0	 0	 0	 0	 17	 1	 0	 138	 1	 1.1	 0.9;
	 54	 1	 9.14	 3.76	 0	 0	 17	 1	 0	 69	 1	 1.1	 0.9;
	 55	 1	 19.41	 9.12	 0	 0	 17	 1	 0	 138	 1	 1.1	 0.9;
	 56	 1	 0	 0	 0	 0	 17	 1	 0	 138	 1	 1.1	 0.9;
	 57	 1	 4.56	 2.3	 0	 0	 17	 1	 0	 69	 1	 1.1	 0.9;
	 58	 1	 1.93	 1.2	 0	 0	 17	 1	 0	 69	 1	 1.1	 0.9;
	 59	 1	 5.6	 3.17	 0	 0	 17	 1	 0	 138	 1	 1.1	 0.9;
	 60	 1	 0	 0	 0	 0	 17	 1	 0	 138	 1	 1.1	 0.9;
	 61	 1	 1.54	 0.85	 0	 0	 17	 1	 0	 69	 1	 1.1	 0.9;
	 62	 1	 4.25	 2.15	 0	 0	 17	 1	 0	 69	 1	 1.1	 0.9;
	 63	 1	 0	 0	 0	 0	 17	 1	 0	 138	 1	 1.1	 0.9;
	 64	 1	 0	 0	 0	 0	 17	 1	 0	 138	 1	 1.1	 0.9;
	 65	 1	 1.15	 0.67	 0	 0	 17	 1	 0	 138	 1	 1.1	 0.9;
	 66	 1	 7.03	 1.93	 0	 0	 17	 1	 0	 69	 1	 1.1	 0.9;
	 67	 1	 0	 0	 0	 0	 17	 1	 0	 138	 1	 1.1	 0.9;
	 68	 1	 1.43	 0.85	 0	 0	 17	 1	 0	 138	 1	 1.1	 0.9;
	 69	 1	 3.59	 1.85	 0	 0	 17	 1	 0	 69	 1	 1.1	 0.9;
	 70	 1	 6.73	 2.5	 0	 0	 17	 1	 0	 69	 1	 1.1	 0.9;
	 71	 1	 2.4	 0.45	 0	 0	 17	 1	 0	 69	 1	 1.1	 0.9;
	 72	 1	 9.13	 1.73	 0	 0	 17	 1	 0	 69	 1	 1.1	 0.9;
	 73	 1	 5.16	 2.11	 0	 0	 17	 1	 0	 69	 1	 1.1	 0.9;
	 74	 1	 6.7	 2.15	 0	 0	 17	 1	 0	 69	 1	 1.1	 0.9;
	 75	 1	 4.08	 1.3	 0	 0	 17	 1	 0	 69	 1	 1.1	 0.9;
	 76	 1	 3.01	 1.57	 0	 0	 17	 1	 0	 138	 1	 1.1	 0.9;
	 77	 1	 3.37	 1.64	 0	 0	 17	 1	 0	 69	 1	 1.1	 0.9;
	 78	 1	 10.61	 4.05	 0	 0	 17	 1	 0	 69	 1	 1.1	 0.9;
	 79	 1	 10.84	 4.84	 0	 0	 17	 1	 0	 69	 1	 1.1	 0.9;
	 80	 1	 3.31	 1.9	 0	 0	 17	 1	 0	 69	 1	 1.1	 0.9;
	 81	 1	 3.59	 1.88	 0	 0	 17	 1	 0	 69	 1	 1.1	 0.9;
	 82	 1	 1.77	 1.01	 0	 0	 17	 1	 0	 69	 1	 1.1	 0.9;
	 83	 1	 2.58	 1.64	 0	 0	 17	 1	 0	 69	 1	 1.1	 0.9;
	 84	 1	 3.39	 2.18	 0	 0	 17	 1	 0	 69	 1	 1.1	 0.9;
	 85	 1	 1.98	 1.3	 0	 0	 17	 1	 0	 69	 1	 1.1	 0.9;
	 86	 1	 5.42	 2.69	 0	 0	 17	 1	 0	 69	 1	 1.1	 0.9;
	 87	 1	 4.89	 2.79	 0	 0	 17	 1	 0	 69	 1	 1.1	 0.9;
	 88	 1	 2.3	 1.58	 0	 0	 17	 1	 0	 69	 1	 1.1	 0.9;
	 89	 1	 7.84	 4.69	 0	 0	 17	 1	 0	 69	 1	 1.1	 0.9;
	 90	 1	 5.48	 3.39	 0	 0	 17	 1	 0	 69	 1	 1.1	 0.9;
	 91	 1	 0.92	 0.52	 0	 0	 17	 1	 0	 69	 1	 1.1	 0.9;
	 92	 1	 12.14	 5.57	 0	 0	 17	 1	 0	 69	 1	 1.1	 0.9;
	 93	 1	 0	 0	 0	 0	 17	 1	 0	 138	 1	 1.1	 0.9;
	 94	 1	 2.16	 1.16	 0	 0	 17	 1	 0	 69	 1	 1.1	 0.9;
	 95	 1	 1.34	 0.64	 0	 0	 17	 1	 0	 69	 1	 1.1	 0.9;
	 96	 1	 1.17	 0.76	 0	 0	 17	 1	 0	 69	 1	 1.1	 0.9;
	 97	 1	 1.01	 0.63	 0	 0	 17	 1	 0	 69	 1	 1.1	 0.9;
	 98	 1	 1.83	 0.84	 0	 0	 17	 1	 0	 69	 1	 1.1	 0.9;
	 99	 1	 9.51	 4.89	 0	 0	 17	 1	 0	 69	 1	 1.1	 0.9;
	 100	 1	 0	 0	 0	 0	 17	 1	 0	 138	 1	 1.1	 0.9;
	 101	 1	 1.38	 0.78	 0	 0	 17	 1	 0	 69	 1	 1.1	 0.9;
	 102	 1	 7.79	 4.04	 0	 0	 17	 1	 0	 69	 1	 1.1	 0.9;
	 103	 1	 3.74	 1.85	 0	 0	 17	 1	 0	 69	 1	 1.1	 0.9;
	 104	 1	 0	 0	 0	 0	 17	 1	 0	 138	 1	 1.1	 0.9;
	 105	 1	 2.45	 1.24	 0	 0	 17	 1	 0	 69	 1	 1.1	 0.9;
	 106	 1	 1.79	 1.18	 0	 0	 17	 1	 0	 69	 1	 1.1	 0.9;
	 107	 1	 9.02	 3.87	 0	 0	 17	 1	 0	 69	 1	 1.1	 0.9;
	 108	 1	 8.4	 4.58	 0	 0	 17	 1	 0	 69	 1	 1.1	 0.9;
	 109	 1	 5.63	 2.83	 0	 0	 17	 1	 0	 69	 1	 1.1	 0.9;
	 110	 1	 10.38	 5.26	 0	 0	 17	 1	 0	 69	 1	 1.1	 0.9;
	 111	 1	 1.75	 0.91	 0	 0	 17	 1	 0	 69	 1	 1.1	 0.9;
	 112	 1	 0	 0	 0	 0	 17	 1	 0	 138	 1	 1.1	 0.9;
	 113	 1	 1.01	 0.58	 0	 0	 17	 1	 0	 69	 1	 1.1	 0.9;
	 114	 1	 7.57	 4.12	 0	 0	 17	 1	 0	 69	 1	 1.1	 0.9;
	 115	 1	 3.82	 2.33	 0	 0	 17	 1	 0	 69	 1	 1.1	 0.9;
	 116	 1	 5.86	 3.63	 0	 0	 17	 1	 0	 69	 1	 1.1	 0.9;
	 117	 1	 0	 0	 0	 0	 17	 1	 0	 345	 1	 1.1	 0.9;
	 118	 1	 0	 0	 0	 0	 17	 1	 0	 138	 1	 1.1	 0.9;
	 119	 1	 0	 0	 0	 0	 17	 1	 0	 138	 1	 1.1	 0.9;
	 120	 1	 13.94	 8.3	 0	 0	 17	 1	 0	 69	 1	 1.1	 0.9;
	 121	 1	 3.84	 2.36	 0	 0	 17	 1	 0	 69	 1	 1.1	 0.9;
	 122	 1	 2.21	 1.43	 0	 0	 17	 1	 0	 69	 1	 1.1	 0.9;
	 123	 1	 3.47	 1.89	 0	 0	 17	 1	 0	 69	 1	 1.1	 0.9;
	 124	 1	 4.27	 1.93	 0	 0	 17	 1	 0	 69	 1	 1.1	 0.9;
	 125	 1	 8.93	 3.44	 0	 0	 17	 1	 0	 69	 1	 1.1	 0.9;
	 126	 1	 0	 0	 0	 0	 17	 1	 0	 138	 1	 1.1	 0.9;
	 127	 1	 7.77	 3.79	 0	 0	 17	 1	 0	 69	 1	 1.1	 0.9;
	 128	 1	 13.27	 5.33	 0	 0	 17	 1	 0	 69	 1	 1.1	 0.9;
	 129	 1	 9.02	 3.48	 0	 0	 17	 1	 0	 69	 1	 1.1	 0.9;
	 130	 1	 3.96	 2.2	 0	 0	 17	 1	 0	 69	 1	 1.1	 0.9;
	 131	 1	 2.26	 1.36	 0	 0	 17	 1	 0	 69	 1	 1.1	 0.9;
	 132	 1	 6.43	 3.17	 0	 0	 17	 1	 0	 69	 1	 1.1	 0.9;
	 133	 1	 3.19	 1.79	 0	 0	 17	 1	 0	 69	 1	 1.1	 0.9;
	 134	 1	 5.1	 2.58	 0	 0	 17	 1	 0	 69	 1	 1.1	 0.9;
	 135	 1	 10.9	 4.05	 0	 0	 17	 1	 0	 69	 1	 1.1	 0.9;
	 136	 1	 0	 0	 0	 0	 17	 1	 0	 138	 1	 1.1	 0.9;
	 137	 1	 6.3	 3.41	 0	 0	 17	 1	 0	 69	 1	 1.1	 0.9;
	 138	 1	 13.43	 6.14	 0	 0	 17	 1	 0	 69	 1	 1.1	 0.9;
	 139	 1	 2.65	 1.52	 0	 0	 17	 1	 0	 69	 1	 1.1	 0.9;
	 140	 1	 0.86	 0.5	 0	 0	 17	 1	 0	 69	 1	 1.1	 0.9;
	 141	 1	 1.64	 1.04	 0	 0	 17	 1	 0	 69	 1	 1.1	 0.9;
	 142	 1	 1.95	 1.26	 0	 0	 17	 1	 0	 69	 1	 1.1	 0.9;
	 143	 1	 4.79	 2.33	 0	 0	 17	 1	 0	 69	 1	 1.1	 0.9;
	 144	 1	 1.5	 0.9	 0	 0	 17	 1	 0	 69	 1	 1.1	 0.9;
	 145	 1	 5.75	 3.4	 0	 0	 17	 1	 0	 69	 1	 1.1	 0.9;
	 146	 1	 0	 0	 0	 0	 17	 1	 0	 138	 1	 1.1	 0.9;
	 147	 1	 1.47	 0.84	 0	 0	 17	 1	 0	 69	 1	 1.1	 0.9;
	 148	 1	 2.2	 1.07	 0	 0	 17	 1	 0	 69	 1	 1.1	 0.9;
	 149	 1	 0	 0	 0	 0	 17	 1	 0	 138	 1	 1.1	 0.9;
	 150	 1	 6.23	 2.4	 0	 0	 17	 1	 0	 69	 1	 1.1	 0.9;
	 151	 1	 0.7	 0.48	 0	 0	 17	 1	 0	 69	 1	 1.1	 0.9;
	 152	 1	 6.58	 3.46	 0	 0	 17	 1	 0	 69	 1	 1.1	 0.9;
	 153	 1	 3.86	 1.85	 0	 0	 17	 1	 0	 69	 1	 1.1	 0.9;
	 154	 1	 3.07	 1.8	 0	 0	 17	 1	 0	 69	 1	 1.1	 0.9;
	 155	 1	 4.52	 2.32	 0	 0	 17	 1	 0	 69	 1	 1.1	 0.9;
	 156	 1	 5.37	 2.2	 0	 0	 17	 1	 0	 69	 1	 1.1	 0.9;
	 157	 1	 3.53	 2.07	 0	 0	 17	 1	 0	 69	 1	 1.1	 0.9;
	 158	 1	 4.73	 3.01	 0	 0	 17	 1	 0	 69	 1	 1.1	 0.9;
	 159	 1	 3.56	 0.68	 0	 0	 17	 1	 0	 69	 1	 1.1	 0.9;
	 160	 1	 5.2	 1	 0	 0	 17	 1	 0	 69	 1	 1.1	 0.9;
	 161	 1	 16.16	 7.99	 0	 0	 17	 1	 0	 69	 1	 1.1	 0.9;
	 162	 1	 0	 0	 0	 0	 17	 1	 0	 138	 1	 1.1	 0.9;
	 163	 1	 3.9	 0.75	 0	 0	 17	 1	 0	 69	 1	 1.1	 0.9;
	 164	 1	 2.85	 0.55	 0	 0	 17	 1	 0	 69	 1	 1.1	 0.9;
	 165	 1	 3.56	 1.69	 0	 0	 17	 1	 0	 69	 1	 1.1	 0.9;
	 166	 1	 0	 0	 0	 0	 17	 1	 0	 345	 1	 1.1	 0.9;
	 167	 1	 0	 0	 0	 0	 17	 1	 0	 138	 1	 1.1	 0.9;
	 168	 1	 0	 0	 0	 0	 17	 1	 0	 138	 1	 1.1	 0.9;
	 169	 1	 0	 0	 0	 0	 17	 1	 0	 138	 1	 1.1	 0.9;
	 170	 1	 3.32	 1.52	 0	 0	 17	 1	 0	 69	 1	 1.1	 0.9;
	 171	 1	 2.47	 1.34	 0	 0	 17	 1	 0	 69	 1	 1.1	 0.9;
	 172	 1	 4.24	 2.52	 0	 0	 17	 1	 0	 69	 1	 1.1	 0.9;
	 173	 1	 0	 0	 0	 0	 17	 1	 0	 138	 1	 1.1	 0.9;
	 174	 1	 0	 0	 0	 0	 17	 1	 0	 138	 1	 1.1	 0.9;
	 175	 1	 8.14	 4.31	 0	 0	 17	 1	 0	 69	 1	 1.1	 0.9;
	 176	 1	 6.19	 2.95	 0	 0	 17	 1	 0	 69	 1	 1.1	 0.9;
	 177	 1	 2.17	 1.43	 0	 0	 17	 1	 0	 69	 1	 1.1	 0.9;
	 178	 1	 9.33	 4.38	 0	 0	 17	 1	 0	 69	 1	 1.1	 0.9;
	 179	 1	 0	 0	 0	 0	 17	 1	 0	 138	 1	 1.1	 0.9;
	 180	 1	 7.73	 4.35	 0	 0	 17	 1	 0	 69	 1	 1.1	 0.9;
	 181	 1	 0	 0	 0	 0	 17	 1	 0	 138	 1	 1.1	 0.9;
	 182	 1	 7.15	 3.63	 0	 0	 17	 1	 0	 69	 1	 1.1	 0.9;
	 183	 1	 1.64	 0.85	 0	 0	 17	 1	 0	 69	 1	 1.1	 0.9;
	 184	 1	 3.89	 2	 0	 0	 17	 1	 0	 69	 1	 1.1	 0.9;
	 185	 1	 10.74	 2.06	 0	 0	 17	 1	 0	 69	 1	 1.1	 0.9;
	 186	 1	 4.32	 1.8	 0	 0	 17	 1	 0	 69	 1	 1.1	 0.9;
	 187	 1	 5.38	 2.31	 0	 0	 17	 1	 0	 69	 1	 1.1	 0.9;
	 188	 1	 1.12	 0.58	 0	 0	 17	 1	 0	 69	 1	 1.1	 0.9;
	 189	 1	 1.49	 0.8	 0	 0	 17	 1	 0	 69	 1	 1.1	 0.9;
	 190	 1	 0	 0	 0	 0	 17	 1	 0	 138	 1	 1.1	 0.9;
	 191	 1	 0.84	 0.55	 0	 0	 17	 1	 0	 69	 1	 1.1	 0.9;
	 192	 1	 6.73	 2.69	 0	 0	 17	 1	 0	 69	 1	 1.1	 0.9;
	 193	 1	 2.45	 1.42	 0	 0	 17	 1	 0	 69	 1	 1.1	 0.9;
	 194	 1	 2.54	 1.51	 0	 0	 17	 1	 0	 69	 1	 1.1	 0.9;
	 195	 1	 5.44	 2.47	 0	 0	 17	 1	 0	 69	 1	 1.1	 0.9;
	 196	 1	 4.85	 2.43	 0	 0	 17	 1	 0	 69	 1	 1.1	 0.9;
	 197	 1	 4.73	 2.5	 0	 0	 17	 1	 0	 69	 1	 1.1	 0.9;
	 198	 1	 16.97	 7.53	 0	 0	 17	 1	 0	 69	 1	 1.1	 0.9;
	 199	 1	 11.45	 5.63	 0	 0	 17	 1	 0	 69	 1	 1.1	 0.9;
	 200	 1	 2.47	 1.47	 0	 0	 17	 1	 0	 69	 1	 1.1	 0.9;
...
];

mpc_regionR2.gen = [
%	bus         Pg          Qg          Qmax        Qmin        Vg          mBase       status      Pmax        Pmin        Pc1         Pc2         Qc1min      Qc1max      Qc2min      Qc2max      ramp_agc    ramp_10     ramp_30     ramp_q      apf         
	 1	 438.5	 0.715	 364.43	-363	 1	 100	 1	 726	 151	 0	 0	 0	 0	 0	 0	 0	 0	 0	 0	 616.2;
	 1	 119.5	 0	 102	-102	 1	 100	 1	 204	 35	 0	 0	 0	 0	 0	 0	 0	 0	 0	 0	 87.1;
	 1	 89	 0	 72	-72	 1	 100	 1	 143	 35	 0	 0	 0	 0	 0	 0	 0	 0	 0	 0	 87.1;
	 1	 155	 0	 138	-138	 1	 100	 1	 275	 35	 0	 0	 0	 0	 0	 0	 0	 0	 0	 0	 87.1;
	 1	 86.5	 0	 69	-69	 1	 100	 1	 138	 35	 0	 0	 0	 0	 0	 0	 0	 0	 0	 0	 87.1;
	 1	 117.5	 0	 100	-100	 1	 100	 1	 200	 35	 0	 0	 0	 0	 0	 0	 0	 0	 0	 0	 87.1;
	 1	 81.5	 0	 64	-64	 1	 100	 1	 128	 35	 0	 0	 0	 0	 0	 0	 0	 0	 0	 0	 87.1;
	 1	 114	 0	 97	-97	 1	 100	 1	 193	 35	 0	 0	 0	 0	 0	 0	 0	 0	 0	 0	 87.1;
	 1	 119.5	 0	 102	-102	 1	 100	 1	 204	 35	 0	 0	 0	 0	 0	 0	 0	 0	 0	 0	 87.1;
	 1	 275.5	 79.515	 364.43	-205.4	 1	 100	 1	 400	 151	 0	 0	 0	 0	 0	 0	 0	 0	 0	 0	 616.2;
	 1	 402.5	 18.715	 364.43	-327	 1	 100	 1	 654	 151	 0	 0	 0	 0	 0	 0	 0	 0	 0	 0	 616.2;
	 1	 78.25	 30.95	 198.6	-136.7	 1	 100	 1	 144	 12.5	 0	 0	 0	 0	 0	 0	 0	 0	 0	 0	 410;
	 1	 155	 45.25	 235.5	-145	 1	 100	 1	 290	 20	 0	 0	 0	 0	 0	 0	 0	 0	 0	 0	 380;
	 1	 73.5	 0	 56	-56	 1	 100	 1	 112	 35	 0	 0	 0	 0	 0	 0	 0	 0	 0	 0	 87.1;
	 1	 81.5	 0	 64	-64	 1	 100	 1	 128	 35	 0	 0	 0	 0	 0	 0	 0	 0	 0	 0	 87.1;
	 1	 99.5	 0	 82	-82	 1	 100	 1	 164	 35	 0	 0	 0	 0	 0	 0	 0	 0	 0	 0	 87.1;
	 1	 208	 0	 191	-191	 1	 100	 1	 381	 35	 0	 0	 0	 0	 0	 0	 0	 0	 0	 0	 87.1;
	 3	 12.5	 0	 11	-11	 1	 100	 1	 21	 4	 0	 0	 0	 0	 0	 0	 0	 0	 0	 0	 16;
	 3	 16.5	 0	 15	-15	 1	 100	 1	 29	 4	 0	 0	 0	 0	 0	 0	 0	 0	 0	 0	 16;
	 3	 18.5	 0	 17	-17	 1	 100	 1	 33	 4	 0	 0	 0	 0	 0	 0	 0	 0	 0	 0	 16;
	 3	 15.5	 0	 14	-14	 1	 100	 1	 27	 4	 0	 0	 0	 0	 0	 0	 0	 0	 0	 0	 16;
	 3	 17	 0	 15	-15	 1	 100	 1	 30	 4	 0	 0	 0	 0	 0	 0	 0	 0	 0	 0	 16;
	 4	 49	 0	 44	-44	 1	 100	 1	 88	 10	 0	 0	 0	 0	 0	 0	 0	 0	 0	 0	 60.5;
	 6	 7.675	 0	 14.4	-14.4	 1	 100	 1	 14	 1.35	 0	 0	 0	 0	 0	 0	 0	 0	 0	 0	 9.44;
	 6	 11.175	 0	 14.4	-14.4	 1	 100	 1	 21	 1.35	 0	 0	 0	 0	 0	 0	 0	 0	 0	 0	 9.44;
	 6	 17.675	 0	 17	-17	 1	 100	 1	 34	 1.35	 0	 0	 0	 0	 0	 0	 0	 0	 0	 0	 9.44;
	 6	 17.175	 0	 17	-17	 1	 100	 1	 33	 1.35	 0	 0	 0	 0	 0	 0	 0	 0	 0	 0	 9.44;
	 6	 14.175	 0	 14.4	-14.4	 1	 100	 1	 27	 1.35	 0	 0	 0	 0	 0	 0	 0	 0	 0	 0	 9.44;
	 8	 37.1	 0	 30	-30	 1	 100	 1	 60	 14.2	 0	 0	 0	 0	 0	 0	 0	 0	 0	 0	 42.4;
	 8	 26.7	 3.15	 26.3	-20	 1	 100	 1	 40	 13.4	 0	 0	 0	 0	 0	 0	 0	 0	 0	 0	 42.4;
	 8	 24.8	 3.8	 26.6	-19	 1	 100	 1	 37	 12.6	 0	 0	 0	 0	 0	 0	 0	 0	 0	 0	 42.9;
	 8	 22.1	 5.15	 26.3	-16	 1	 100	 1	 32	 12.2	 0	 0	 0	 0	 0	 0	 0	 0	 0	 0	 42.4;
	 10	 15	 1.6	 23.6	-20.4	 1	 100	 1	 25	 5	 0	 0	 0	 0	 0	 0	 0	 0	 0	 0	 38;
	 12	 11.25	 2.7	 21	-15.6	 1	 100	 1	 20	 2.5	 0	 0	 0	 0	 0	 0	 0	 0	 0	 0	 28;
	 13	 17.0525	 0	 17	-17	 1	 100	 1	 33	 1.105	 0	 0	 0	 0	 0	 0	 0	 0	 0	 0	 6.3;
	 13	 6.5525	 0	 8.4	-8.4	 1	 100	 1	 12	 1.105	 0	 0	 0	 0	 0	 0	 0	 0	 0	 0	 6.3;
	 13	 13.0525	 0	 13	-13	 1	 100	 1	 25	 1.105	 0	 0	 0	 0	 0	 0	 0	 0	 0	 0	 6.3;
	 13	 17.0525	 0	 17	-17	 1	 100	 1	 33	 1.105	 0	 0	 0	 0	 0	 0	 0	 0	 0	 0	 6.3;
	 13	 21.25	 0	 20	-20	 1	 100	 1	 40	 2.5	 0	 0	 0	 0	 0	 0	 0	 0	 0	 0	 21.3;
	 14	 4.25	 0	 18	-18	 1	 100	 1	 6	 2.5	 0	 0	 0	 0	 0	 0	 0	 0	 0	 0	 24;
	 15	 8.485	 0	 8	-8	 1	 100	 1	 15	 1.97	 0	 0	 0	 0	 0	 0	 0	 0	 0	 0	 4.74;
	 15	 6.485	 0	 6	-6	 1	 100	 1	 11	 1.97	 0	 0	 0	 0	 0	 0	 0	 0	 0	 0	 4.74;
	 15	 10.485	 0	 10	-10	 1	 100	 1	 19	 1.97	 0	 0	 0	 0	 0	 0	 0	 0	 0	 0	 4.74;
	 15	 19.485	 0	 19	-19	 1	 100	 1	 37	 1.97	 0	 0	 0	 0	 0	 0	 0	 0	 0	 0	 4.74;
	 15	 16.485	 0	 16	-16	 1	 100	 1	 31	 1.97	 0	 0	 0	 0	 0	 0	 0	 0	 0	 0	 4.74;
	 17	 8	 0	 20.4	-20.4	 1	 100	 1	 14	 2	 0	 0	 0	 0	 0	 0	 0	 0	 0	 0	 11.5;
	 17	 9.5	 0	 20.4	-20.4	 1	 100	 1	 17	 2	 0	 0	 0	 0	 0	 0	 0	 0	 0	 0	 11.5;
	 18	 10.75	 0	 18	-18	 1	 100	 1	 19	 2.5	 0	 0	 0	 0	 0	 0	 0	 0	 0	 0	 22.6;
	 20	 1	 0	 7.2	-7.2	 1	 100	 1	 2	 0	 0	 0	 0	 0	 0	 0	 0	 0	 0	 0	 6.7;
	 20	 1.5	 0	 7.2	-7.2	 1	 100	 1	 3	 0	 0	 0	 0	 0	 0	 0	 0	 0	 0	 0	 6.7;
	 20	 0.5	 0	 7.2	-7.2	 1	 100	 1	 1	 0	 0	 0	 0	 0	 0	 0	 0	 0	 0	 0	 6.7;
	 21	 11.25	 2.5	 15	-10	 1	 100	 1	 20	 2.5	 0	 0	 0	 0	 0	 0	 0	 0	 0	 0	 20;
	 22	 12	 0	 21.6	-21.6	 1	 100	 1	 21	 3	 0	 0	 0	 0	 0	 0	 0	 0	 0	 0	 20;
	 22	 5	 0	 21.6	-21.6	 1	 100	 1	 7	 3	 0	 0	 0	 0	 0	 0	 0	 0	 0	 0	 20;
	 22	 12.5	 0	 21.6	-21.6	 1	 100	 1	 22	 3	 0	 0	 0	 0	 0	 0	 0	 0	 0	 0	 20;
	 23	 16	 0	 15.6	-15.6	 1	 100	 1	 28	 4	 0	 0	 0	 0	 0	 0	 0	 0	 0	 0	 20;
	 342	 62.25	 0	 48	-48	 1	 100	 1	 96	 28.5	 0	 0	 0	 0	 0	 0	 0	 0	 0	 0	 90;
	 342	 95.75	 0	 82	-82	 1	 100	 1	 163	 28.5	 0	 0	 0	 0	 0	 0	 0	 0	 0	 0	 90;
	 342	 119.75	 0	 106	-106	 1	 100	 1	 211	 28.5	 0	 0	 0	 0	 0	 0	 0	 0	 0	 0	 90;
	 342	 59.5	 0	 52	-52	 1	 100	 1	 104	 15	 0	 0	 0	 0	 0	 0	 0	 0	 0	 0	 90;
	 342	 61	 0	 54	-54	 1	 100	 1	 107	 15	 0	 0	 0	 0	 0	 0	 0	 0	 0	 0	 90;
	 346	 1	 0	 23.7	-23.7	 1	 100	 1	 2	 0	 0	 0	 0	 0	 0	 0	 0	 0	 0	 0	 0;
	 347	 14	 3.3	 21.3	-14.7	 1	 100	 1	 23	 5	 0	 0	 0	 0	 0	 0	 0	 0	 0	 0	 44;
	 349	 3.6	 0	 4	-4	 1	 100	 1	 7	 0.2	 0	 0	 0	 0	 0	 0	 0	 0	 0	 0	 0.5726;
	 349	 1.6	 0	 2	-2	 1	 100	 1	 3	 0.2	 0	 0	 0	 0	 0	 0	 0	 0	 0	 0	 0.5726;
	 349	 2.6	 0	 3	-3	 1	 100	 1	 5	 0.2	 0	 0	 0	 0	 0	 0	 0	 0	 0	 0	 0.5726;
	 349	 3.1	 0	 3	-3	 1	 100	 1	 6	 0.2	 0	 0	 0	 0	 0	 0	 0	 0	 0	 0	 0.5726;
	 349	 1.1	 0	 1.2	-1.2	 1	 100	 1	 2	 0.2	 0	 0	 0	 0	 0	 0	 0	 0	 0	 0	 0.5726;
	 349	 3.1	 0	 3	-3	 1	 100	 1	 6	 0.2	 0	 0	 0	 0	 0	 0	 0	 0	 0	 0	 0.5726;
	 349	 1.1	 0	 1.2	-1.2	 1	 100	 1	 2	 0.2	 0	 0	 0	 0	 0	 0	 0	 0	 0	 0	 0.5726;
	 349	 4.6	 0	 5	-5	 1	 100	 1	 9	 0.2	 0	 0	 0	 0	 0	 0	 0	 0	 0	 0	 0.5726;
	 349	 3.6	 0	 4	-4	 1	 100	 1	 7	 0.2	 0	 0	 0	 0	 0	 0	 0	 0	 0	 0	 0.5726;
	 349	 1.1	 0	 1.2	-1.2	 1	 100	 1	 2	 0.2	 0	 0	 0	 0	 0	 0	 0	 0	 0	 0	 0.5726;
	 349	 3.1	 0	 3	-3	 1	 100	 1	 6	 0.2	 0	 0	 0	 0	 0	 0	 0	 0	 0	 0	 0.5726;
	 349	 2.6	 0	 3	-3	 1	 100	 1	 5	 0.2	 0	 0	 0	 0	 0	 0	 0	 0	 0	 0	 0.5726;
	 349	 1.6	 0	 2	-2	 1	 100	 1	 3	 0.2	 0	 0	 0	 0	 0	 0	 0	 0	 0	 0	 0.5726;
	 349	 1.1	 0	 1.2	-1.2	 1	 100	 1	 2	 0.2	 0	 0	 0	 0	 0	 0	 0	 0	 0	 0	 0.5726;
	 349	 4.6	 0	 5	-5	 1	 100	 1	 9	 0.2	 0	 0	 0	 0	 0	 0	 0	 0	 0	 0	 0.5726;
	 349	 2.1	 0	 2	-2	 1	 100	 1	 4	 0.2	 0	 0	 0	 0	 0	 0	 0	 0	 0	 0	 0.5726;
	 349	 3.6	 0	 4	-4	 1	 100	 1	 7	 0.2	 0	 0	 0	 0	 0	 0	 0	 0	 0	 0	 0.5726;
	 349	 4.6	 0	 5	-5	 1	 100	 1	 9	 0.2	 0	 0	 0	 0	 0	 0	 0	 0	 0	 0	 0.5726;
	 349	 1.6	 0	 2	-2	 1	 100	 1	 3	 0.2	 0	 0	 0	 0	 0	 0	 0	 0	 0	 0	 0.5726;
	 349	 1.6	 0	 2	-2	 1	 100	 1	 3	 0.2	 0	 0	 0	 0	 0	 0	 0	 0	 0	 0	 0.5726;
	 349	 2.1	 0	 2	-2	 1	 100	 1	 4	 0.2	 0	 0	 0	 0	 0	 0	 0	 0	 0	 0	 0.5726;
	 349	 4.6	 0	 5	-5	 1	 100	 1	 9	 0.2	 0	 0	 0	 0	 0	 0	 0	 0	 0	 0	 0.5726;
	 349	 1.6	 0	 2	-2	 1	 100	 1	 3	 0.2	 0	 0	 0	 0	 0	 0	 0	 0	 0	 0	 0.5726;
	 349	 1.1	 0	 1.2	-1.2	 1	 100	 1	 2	 0.2	 0	 0	 0	 0	 0	 0	 0	 0	 0	 0	 0.5726;
	 349	 1.6	 0	 2	-2	 1	 100	 1	 3	 0.2	 0	 0	 0	 0	 0	 0	 0	 0	 0	 0	 0.5726;
	 349	 2.6	 0	 3	-3	 1	 100	 1	 5	 0.2	 0	 0	 0	 0	 0	 0	 0	 0	 0	 0	 0.5726;
	 349	 2.1	 0	 2	-2	 1	 100	 1	 4	 0.2	 0	 0	 0	 0	 0	 0	 0	 0	 0	 0	 0.5726;
	 349	 2.1	 0	 2	-2	 1	 100	 1	 4	 0.2	 0	 0	 0	 0	 0	 0	 0	 0	 0	 0	 0.5726;
	 349	 1.6	 0	 2	-2	 1	 100	 1	 3	 0.2	 0	 0	 0	 0	 0	 0	 0	 0	 0	 0	 0.5726;
	 349	 2.6	 0	 3	-3	 1	 100	 1	 5	 0.2	 0	 0	 0	 0	 0	 0	 0	 0	 0	 0	 0.5726;
	 349	 4.1	 0	 4	-4	 1	 100	 1	 8	 0.2	 0	 0	 0	 0	 0	 0	 0	 0	 0	 0	 0.5726;
	 349	 4.1	 0	 4	-4	 1	 100	 1	 8	 0.2	 0	 0	 0	 0	 0	 0	 0	 0	 0	 0	 0.5726;
	 349	 3.1	 0	 3	-3	 1	 100	 1	 6	 0.2	 0	 0	 0	 0	 0	 0	 0	 0	 0	 0	 0.5726;
	 349	 3.1	 0	 3	-3	 1	 100	 1	 6	 0.2	 0	 0	 0	 0	 0	 0	 0	 0	 0	 0	 0.5726;
	 349	 2.6	 0	 3	-3	 1	 100	 1	 5	 0.2	 0	 0	 0	 0	 0	 0	 0	 0	 0	 0	 0.5726;
	 349	 2.6	 0	 3	-3	 1	 100	 1	 5	 0.2	 0	 0	 0	 0	 0	 0	 0	 0	 0	 0	 0.5726;
	 349	 4.6	 0	 5	-5	 1	 100	 1	 9	 0.2	 0	 0	 0	 0	 0	 0	 0	 0	 0	 0	 0.5726;
	 349	 1.6	 0	 2	-2	 1	 100	 1	 3	 0.2	 0	 0	 0	 0	 0	 0	 0	 0	 0	 0	 0.5726;
	 349	 1.1	 0	 1.2	-1.2	 1	 100	 1	 2	 0.2	 0	 0	 0	 0	 0	 0	 0	 0	 0	 0	 0.5726;
	 349	 4.1	 0	 4	-4	 1	 100	 1	 8	 0.2	 0	 0	 0	 0	 0	 0	 0	 0	 0	 0	 0.5726;
	 349	 2.1	 0	 2	-2	 1	 100	 1	 4	 0.2	 0	 0	 0	 0	 0	 0	 0	 0	 0	 0	 0.5726;
	 349	 3.6	 0	 4	-4	 1	 100	 1	 7	 0.2	 0	 0	 0	 0	 0	 0	 0	 0	 0	 0	 0.5726;
	 349	 2.1	 0	 2	-2	 1	 100	 1	 4	 0.2	 0	 0	 0	 0	 0	 0	 0	 0	 0	 0	 0.5726;
	 349	 1.1	 0	 1.2	-1.2	 1	 100	 1	 2	 0.2	 0	 0	 0	 0	 0	 0	 0	 0	 0	 0	 0.5726;
	 349	 1.6	 0	 2	-2	 1	 100	 1	 3	 0.2	 0	 0	 0	 0	 0	 0	 0	 0	 0	 0	 0.5726;
	 349	 3.6	 0	 4	-4	 1	 100	 1	 7	 0.2	 0	 0	 0	 0	 0	 0	 0	 0	 0	 0	 0.5726;
	 349	 1.1	 0	 1.2	-1.2	 1	 100	 1	 2	 0.2	 0	 0	 0	 0	 0	 0	 0	 0	 0	 0	 0.5726;
	 349	 3.1	 0	 3	-3	 1	 100	 1	 6	 0.2	 0	 0	 0	 0	 0	 0	 0	 0	 0	 0	 0.5726;
	 349	 4.6	 0	 5	-5	 1	 100	 1	 9	 0.2	 0	 0	 0	 0	 0	 0	 0	 0	 0	 0	 0.5726;
	 349	 3.1	 0	 3	-3	 1	 100	 1	 6	 0.2	 0	 0	 0	 0	 0	 0	 0	 0	 0	 0	 0.5726;
	 349	 1.1	 0	 1.2	-1.2	 1	 100	 1	 2	 0.2	 0	 0	 0	 0	 0	 0	 0	 0	 0	 0	 0.5726;
	 349	 1.6	 0	 2	-2	 1	 100	 1	 3	 0.2	 0	 0	 0	 0	 0	 0	 0	 0	 0	 0	 0.5726;
	 349	 2.6	 0	 3	-3	 1	 100	 1	 5	 0.2	 0	 0	 0	 0	 0	 0	 0	 0	 0	 0	 0.5726;
	 349	 2.1	 0	 2	-2	 1	 100	 1	 4	 0.2	 0	 0	 0	 0	 0	 0	 0	 0	 0	 0	 0.5726;
	 349	 1.6	 0	 2	-2	 1	 100	 1	 3	 0.2	 0	 0	 0	 0	 0	 0	 0	 0	 0	 0	 0.5726;
	 349	 3.1	 0	 3	-3	 1	 100	 1	 6	 0.2	 0	 0	 0	 0	 0	 0	 0	 0	 0	 0	 0.5726;
	 349	 3.1	 0	 3	-3	 1	 100	 1	 6	 0.2	 0	 0	 0	 0	 0	 0	 0	 0	 0	 0	 0.5726;
	 349	 2.1	 0	 2	-2	 1	 100	 1	 4	 0.2	 0	 0	 0	 0	 0	 0	 0	 0	 0	 0	 0.5726;
	 349	 2.1	 0	 2	-2	 1	 100	 1	 4	 0.2	 0	 0	 0	 0	 0	 0	 0	 0	 0	 0	 0.5726;
	 349	 4.1	 0	 4	-4	 1	 100	 1	 8	 0.2	 0	 0	 0	 0	 0	 0	 0	 0	 0	 0	 0.5726;
	 349	 3.6	 0	 4	-4	 1	 100	 1	 7	 0.2	 0	 0	 0	 0	 0	 0	 0	 0	 0	 0	 0.5726;
	 349	 2.6	 0	 3	-3	 1	 100	 1	 5	 0.2	 0	 0	 0	 0	 0	 0	 0	 0	 0	 0	 0.5726;
	 349	 2.6	 0	 3	-3	 1	 100	 1	 5	 0.2	 0	 0	 0	 0	 0	 0	 0	 0	 0	 0	 0.5726;
	 349	 1.1	 0	 1.2	-1.2	 1	 100	 1	 2	 0.2	 0	 0	 0	 0	 0	 0	 0	 0	 0	 0	 0.5726;
	 349	 1.1	 0	 1.2	-1.2	 1	 100	 1	 2	 0.2	 0	 0	 0	 0	 0	 0	 0	 0	 0	 0	 0.5726;
	 349	 4.1	 0	 4	-4	 1	 100	 1	 8	 0.2	 0	 0	 0	 0	 0	 0	 0	 0	 0	 0	 0.5726;
	 349	 3.1	 0	 3	-3	 1	 100	 1	 6	 0.2	 0	 0	 0	 0	 0	 0	 0	 0	 0	 0	 0.5726;
	 349	 1.1	 0	 1.2	-1.2	 1	 100	 1	 2	 0.2	 0	 0	 0	 0	 0	 0	 0	 0	 0	 0	 0.5726;
	 349	 1.6	 0	 2	-2	 1	 100	 1	 3	 0.2	 0	 0	 0	 0	 0	 0	 0	 0	 0	 0	 0.5726;
	 349	 1.6	 0	 2	-2	 1	 100	 1	 3	 0.2	 0	 0	 0	 0	 0	 0	 0	 0	 0	 0	 0.5726;
	 349	 4.1	 0	 4	-4	 1	 100	 1	 8	 0.2	 0	 0	 0	 0	 0	 0	 0	 0	 0	 0	 0.5726;
	 349	 2.6	 0	 3	-3	 1	 100	 1	 5	 0.2	 0	 0	 0	 0	 0	 0	 0	 0	 0	 0	 0.5726;
	 349	 4.6	 0	 5	-5	 1	 100	 1	 9	 0.2	 0	 0	 0	 0	 0	 0	 0	 0	 0	 0	 0.5726;
	 351	 32.8	 0	 26	-26	 1	 100	 1	 52	 13.6	 0	 0	 0	 0	 0	 0	 0	 0	 0	 0	 38.6;
	 351	 47.025	 0	 42	-42	 1	 100	 1	 83	 11.05	 0	 0	 0	 0	 0	 0	 0	 0	 0	 0	 29.8;
	 351	 34.75	 1.1	 26.2	-24	 1	 100	 1	 47	 22.5	 0	 0	 0	 0	 0	 0	 0	 0	 0	 0	 54;
	 352	 10.425	 1	 17.6	-15.6	 1	 100	 1	 15	 5.85	 0	 0	 0	 0	 0	 0	 0	 0	 0	 0	 23.4;
	 352	 9.425	 1	 17.6	-15.6	 1	 100	 1	 13	 5.85	 0	 0	 0	 0	 0	 0	 0	 0	 0	 0	 23.4;
	 352	 11.925	 1	 17.6	-15.6	 1	 100	 1	 18	 5.85	 0	 0	 0	 0	 0	 0	 0	 0	 0	 0	 23.4;
	 353	 23	 4.15	 27.3	-19	 1	 100	 1	 38	 8	 0	 0	 0	 0	 0	 0	 0	 0	 0	 0	 44;
	 353	 8.75	-0.7	 13	-14.4	 1	 100	 1	 15	 2.5	 0	 0	 0	 0	 0	 0	 0	 0	 0	 0	 21;
];

mpc_regionR2.branch = [
%	fbus        tbus        r           x           b           rateA       rateB       rateC       ratio       angle       status      angmin      angmax      
	 1	 29	 0.001112	 0.023692	 8.8332	 3601	 3781.1	 3961.1	 0	 0	 1	-30	 30;
	 1	 265	 8e-06	 0.000162	 0.05715	 3601	 3781.1	 3961.1	 0	 0	 1	-30	 30;
	 1	 339	 0.000136	 0.010888	 0	 1800	 1800	 1800	 1	 0	 1	-30	 30;
	 1	 339	 0.000136	 0.010888	 0	 1800	 1800	 1800	 1	 0	 1	-30	 30;
	 2	 29	 0.000293	 0.006094	 2.1146	 3601	 3781.1	 3961.1	 0	 0	 1	-30	 30;
	 2	 342	 0.000213	 0.017042	 0	 1150	 1150	 1150	 0.975	 0	 1	-30	 30;
	 2	 342	 0.000213	 0.017042	 0	 1150	 1150	 1150	 0.975	 0	 1	-30	 30;
	 3	 305	 0.007945	 0.046147	 0.01087	 193	 202.6	 212.3	 0	 0	 1	-30	 30;
	 3	 307	 0.001576	 0.003797	 0.00107	 118	 123.9	 129.8	 0	 0	 1	-30	 30;
	 3	 345	 0.003471	 0.12495	 0	 100	 100	 100	 1	 0	 1	-30	 30;
	 3	 345	 0.003471	 0.12495	 0	 100	 100	 100	 1	 0	 1	-30	 30;
	 4	 198	 0.019691	 0.10844	 0.00245	 110	 115.5	 121	 0	 0	 1	-30	 30;
	 4	 199	 0.010719	 0.030745	 0.00047	 64	 67.2	 70.4	 0	 0	 1	-30	 30;
	 4	 200	 0.15826	 0.17409	 0.00232	 30	 31.5	 33	 0	 0	 1	-30	 30;
	 4	 202	 0.067541	 0.13823	 0.0034	 59	 61.9	 64.9	 0	 0	 1	-30	 30;
	 5	 335	 0.00716	 0.024125	 0.006	 142	 149.1	 156.2	 0	 0	 1	-30	 30;
	 5	 346	 0.003471	 0.12495	 0	 100	 100	 100	 1	 0	 1	-30	 30;
	 5	 346	 0.003471	 0.12495	 0	 100	 100	 100	 1	 0	 1	-30	 30;
	 6	 34	 0.02989	 0.069394	 0.00103	 57	 59.9	 62.7	 0	 0	 1	-30	 30;
	 6	 35	 0.003177	 0.009747	 0.00026	 80	 84	 88	 0	 0	 1	-30	 30;
	 6	 40	 0.059201	 0.16981	 0.00261	 64	 67.2	 70.4	 0	 0	 1	-30	 30;
	 7	 334	 0.004233	 0.015398	 0.00471	 159	 166.9	 174.9	 0	 0	 1	-30	 30;
	 7	 338	 0.001512	 0.004337	 0.00107	 128	 134.4	 140.8	 0	 0	 1	-30	 30;
	 7	 347	 0.003471	 0.12495	 0	 100	 100	 100	 1	 0	 1	-30	 30;
	 7	 347	 0.003471	 0.12495	 0	 100	 100	 100	 1	 0	 1	-30	 30;
	 8	 306	 0.002445	 0.007642	 0.00221	 142	 149.1	 156.2	 0	 0	 1	-30	 30;
	 8	 307	 0.001392	 0.00856	 0.00247	 219	 229.9	 240.9	 0	 0	 1	-30	 30;
	 8	 348	 0.002136	 0.083306	 0	 150	 150	 150	 1	 0	 1	-30	 30;
	 8	 348	 0.002136	 0.083306	 0	 150	 150	 150	 1	 0	 1	-30	 30;
	 9	 93	 0.029286	 0.07605	 0.01846	 118	 123.9	 129.8	 0	 0	 1	-30	 30;
	 9	 349	 0.003471	 0.12495	 0	 100	 100	 100	 1	 0	 1	-30	 30;
	 9	 349	 0.003471	 0.12495	 0	 100	 100	 100	 1	 0	 1	-30	 30;
	 10	 110	 0.033977	 0.080458	 0.00147	 59	 61.9	 64.9	 0	 0	 1	-30	 30;
	 10	 111	 0.070407	 0.17907	 0.00283	 59	 61.9	 64.9	 0	 0	 1	-30	 30;
	 10	 368	 0.016031	 0.042378	 0.00077	 64	 67.2	 70.4	 0	 0	 1	-30	 30;
	 11	 117	 9.9e-05	 0.001667	 0.03022	 1536	 1612.8	 1689.6	 0	 0	 1	-30	 30;
	 11	 259	 0.001956	 0.03554	 0.35637	 1046	 1098.3	 1150.6	 0	 0	 1	-30	 30;
	 11	 350	 0.001184	 0.059188	 0	 250	 250	 250	 1	 0	 1	-30	 30;
	 11	 350	 0.001184	 0.059188	 0	 250	 250	 250	 1	 0	 1	-30	 30;
	 12	 127	 0.01909	 0.063682	 0.00101	 71	 74.6	 78.1	 0	 0	 1	-30	 30;
	 12	 372	 0.009215	 0.026149	 0.00041	 64	 67.2	 70.4	 0	 0	 1	-30	 30;
	 13	 83	 0.04386	 0.092185	 0.00168	 57	 59.9	 62.7	 0	 0	 1	-30	 30;
	 13	 311	 0.29402	 0.23275	 0.00293	 24	 25.2	 26.4	 0	 0	 1	-30	 30;
	 13	 314	 0.052843	 0.11325	 0.00198	 57	 59.9	 62.7	 0	 0	 1	-30	 30;
	 14	 234	 0.026757	 0.029429	 0.00039	 30	 31.5	 33	 0	 0	 1	-30	 30;
	 14	 394	 0.000917	 0.000977	 1e-05	 30	 31.5	 33	 0	 0	 1	-30	 30;
	 15	 86	 0.020858	 0.041298	 0.00061	 41	 43.1	 45.1	 0	 0	 1	-30	 30;
	 15	 87	 0.00666	 0.013186	 0.00019	 41	 43.1	 45.1	 0	 0	 1	-30	 30;
...